No_0-complexes_sdf/6BKW-FPZ/2024-09-17-14-21-01/
     RDKit          3D

 21 23  0  0  0  0  0  0  0  0999 V2000
   -7.9040    3.9820   27.1177 C   0  0  0  0  0  0  0  0  0  0  0  0
   -7.8663    4.8694   27.9238 C   0  0  0  0  0  0  0  0  0  0  0  0
   -9.0501    3.8017   26.2617 C   0  0  0  0  0  0  0  0  0  0  0  0
   -9.1826    2.7026   25.3575 C   0  0  0  0  0  0  0  0  0  0  0  0
   -8.6241    6.0053   27.5974 C   0  0  0  0  0  0  0  0  0  0  0  0
   -9.6577    6.0523   26.7101 C   0  0  0  0  0  0  0  0  0  0  0  0
   -9.7428    4.9359   25.9518 C   0  0  0  0  0  0  0  0  0  0  0  0
   -8.7007    1.4549   25.8151 C   0  0  0  0  0  0  0  0  0  0  0  0
   -8.8433    0.3264   24.9991 C   0  0  0  0  0  0  0  0  0  0  0  0
   -9.4608    0.4871   23.7744 C   0  0  0  0  0  0  0  0  0  0  0  0
   -9.7597    2.6965   24.1659 C   0  0  0  0  0  0  0  0  0  0  0  0
   -9.8941    1.6758   23.3479 C   0  0  0  0  0  0  0  0  0  0  0  0
   -7.1526    2.8191   27.4366 O   0  0  0  0  0  0  0  0  0  0  0  0
   -7.5118    1.5643   26.8420 C   0  0  1  0  0  0  0  0  0  0  0  0
   -6.8028    0.3958   27.2436 C   0  0  1  0  0  0  0  0  0  0  0  0
   -5.3795    0.6382   27.9474 Cl  0  0  0  0  0  0  0  0  0  0  0  0
   -7.3568   -0.8591   27.3937 C   0  0  0  0  0  0  0  0  0  0  0  0
   -6.7608   -1.7971   28.0634 C   0  0  0  0  0  0  0  0  0  0  0  0
   -7.2926   -3.0877   28.2749 C   0  0  0  0  0  0  0  0  0  0  0  0
   -8.5513   -3.2756   27.6784 C   0  0  0  0  0  0  0  0  0  0  0  0
   -9.2059   -2.3248   26.9593 C   0  0  0  0  0  0  0  0  0  0  0  0
  3  4  1  0
  1 13  1  0
  8 14  1  0
 14 13  1  1
 14 15  1  0
 15 16  1  1
 15 17  1  0
 17 18  2  3
 18 19  1  0
 19 20  2  3
 20 21  1  0
  4  8  2  0
  8  9  1  0
  9 10  2  0
 10 12  1  0
 12 11  2  0
 11  4  1  0
  1  2  2  0
  2  5  1  0
  5  6  2  0
  6  7  1  0
  7  3  2  0
  3  1  1  0
M  END
$$$$
