No_1677-complexes_sdf/6BKW-FPZ/2024-09-17-14-21-01/
     RDKit          3D

 25 27  0  0  0  0  0  0  0  0999 V2000
   -7.9040    3.9820   27.1177 C   0  0  0  0  0  0  0  0  0  0  0  0
   -7.8663    4.8694   27.9238 C   0  0  0  0  0  0  0  0  0  0  0  0
   -9.0501    3.8017   26.2617 C   0  0  0  0  0  0  0  0  0  0  0  0
  -10.0189    4.7608   26.3707 C   0  0  0  0  0  0  0  0  0  0  0  0
   -8.6973    5.9722   27.8968 C   0  0  0  0  0  0  0  0  0  0  0  0
   -9.8216    5.8946   27.1241 C   0  0  0  0  0  0  0  0  0  0  0  0
   -9.1437    2.6293   25.4175 C   0  0  0  0  0  0  0  0  0  0  0  0
   -8.6170    1.4258   25.8177 C   0  0  0  0  0  0  0  0  0  0  0  0
   -8.6844    0.3194   24.9788 C   0  0  0  0  0  0  0  0  0  0  0  0
   -9.3359    0.4939   23.7289 C   0  0  0  0  0  0  0  0  0  0  0  0
   -9.8521    1.7195   23.3158 C   0  0  0  0  0  0  0  0  0  0  0  0
   -9.7240    2.7821   24.1593 C   0  0  0  0  0  0  0  0  0  0  0  0
   -9.4432   -0.5686   22.8726 F   0  0  0  0  0  0  0  0  0  0  0  0
  -10.4047    1.8151   22.1168 F   0  0  0  0  0  0  0  0  0  0  0  0
   -6.6818    5.1181   28.6934 O   0  0  0  0  0  0  0  0  0  0  0  0
   -8.0148   -1.1773   25.5563 Cl  0  0  0  0  0  0  0  0  0  0  0  0
  -10.2127    3.9728   23.7582 F   0  0  0  0  0  0  0  0  0  0  0  0
   -8.0377    1.2849   27.0217 O   0  0  0  0  0  0  0  0  0  0  0  0
   -7.7896    0.3173   27.7540 C   0  0  0  0  0  0  0  0  0  0  0  0
   -7.0006   -0.4639   27.6581 C   0  0  0  0  0  0  0  0  0  0  0  0
   -6.3784   -0.9118   26.6336 C   0  0  0  0  0  0  0  0  0  0  0  0
   -5.6383   -1.7403   26.2059 N   0  0  0  0  0  0  0  0  0  0  0  0
   -5.6141    0.4222   26.0268 C   0  0  0  0  0  0  0  0  0  0  0  0
   -4.5917   -1.7500   25.4821 C   0  0  0  0  0  0  0  0  0  0  0  0
   -4.5126   -0.1503   25.3733 C   0  0  0  0  0  0  0  0  0  0  0  0
  3  7  1  0
 10 13  1  0
 11 14  1  0
  2 15  1  0
  9 16  1  0
 12 17  1  0
  8 18  1  0
 18 19  1  0
 19 20  1  0
 20 21  2  3
 21 22  1  0
 21 23  1  0
 22 24  2  0
 23 25  1  0
 24 25  1  0
  1  2  2  0
  2  5  1  0
  5  6  2  0
  6  4  1  0
  4  3  2  0
  3  1  1  0
  7  8  1  0
  8  9  2  0
  9 10  1  0
 10 11  2  0
 11 12  1  0
 12  7  2  0
M  END
$$$$
