No_143-complexes_sdf/6BKW-FPZ/2024-09-17-14-21-01/
     RDKit          3D

  9  9  0  0  0  0  0  0  0  0999 V2000
   -7.2496    3.8871   27.4508 C   0  0  0  0  0  0  0  0  0  0  0  0
   -7.9379    4.9063   27.8518 C   0  0  0  0  0  0  0  0  0  0  0  0
   -9.3376    4.8647   27.7795 C   0  0  0  0  0  0  0  0  0  0  0  0
   -5.8493    3.7505   27.7216 C   0  0  0  0  0  0  0  0  0  0  0  0
   -7.8720    2.8044   26.7057 C   0  0  0  0  0  0  0  0  0  0  0  0
   -9.2841    2.8270   26.6183 C   0  0  0  0  0  0  0  0  0  0  0  0
   -9.9910    3.8719   27.1127 C   0  0  0  0  0  0  0  0  0  0  0  0
   -5.2759    4.7089   28.2830 F   0  0  0  0  0  0  0  0  0  0  0  0
   -5.2056    2.6666   27.6528 F   0  0  0  0  0  0  0  0  0  0  0  0
  1  4  1  0
  4  8  1  0
  4  9  1  0
  1  2  2  0
  2  3  1  0
  3  7  2  0
  7  6  1  0
  6  5  2  0
  5  1  1  0
M  END
$$$$
