No_100-complexes_sdf/6BKW-FPZ/2024-09-17-14-21-01/
     RDKit          3D

 25 28  0  0  0  0  0  0  0  0999 V2000
   -7.2496    3.8871   27.4508 C   0  0  0  0  0  0  0  0  0  0  0  0
   -8.5096    4.0291   27.2770 C   0  0  0  0  0  0  0  0  0  0  0  0
   -9.2677    5.1714   27.5773 C   0  0  0  0  0  0  0  0  0  0  0  0
   -6.5711    2.6400   27.2842 C   0  0  0  0  0  0  0  0  0  0  0  0
   -7.2939    1.5094   27.0532 C   0  0  2  0  0  0  0  0  0  0  0  0
   -6.6434    0.3282   26.9215 C   0  0  0  0  0  0  0  0  0  0  0  0
   -8.6811    1.6768   26.8702 C   0  0  0  0  0  0  0  0  0  0  0  0
   -9.2981    2.8821   27.0968 C   0  0  0  0  0  0  0  0  0  0  0  0
   -5.5786    0.0272   27.7900 C   0  0  0  0  0  0  0  0  0  0  0  0
   -4.8713   -1.1953   27.7681 C   0  0  0  0  0  0  0  0  0  0  0  0
   -5.2805   -2.0899   26.8180 C   0  0  0  0  0  0  0  0  0  0  0  0
   -6.9241   -0.7306   26.1169 C   0  0  0  0  0  0  0  0  0  0  0  0
   -6.2921   -1.8718   25.9896 C   0  0  0  0  0  0  0  0  0  0  0  0
   -8.5473    6.4367   27.4667 C   0  0  0  0  0  0  0  0  0  0  0  0
  -10.6412    5.1965   27.8641 C   0  0  0  0  0  0  0  0  0  0  0  0
  -11.3953    4.0241   27.9634 C   0  0  0  0  0  0  0  0  0  0  0  0
  -10.7038    2.7741   27.4338 C   0  0  0  0  0  0  0  0  0  0  0  0
  -11.4298    1.5513   27.5146 C   0  0  0  0  0  0  0  0  0  0  0  0
  -11.7030    0.9346   26.3204 C   0  0  0  0  0  0  0  0  0  0  0  0
  -11.6991   -0.4019   26.3058 C   0  0  0  0  0  0  0  0  0  0  0  0
  -11.7723   -1.1655   27.5315 C   0  0  0  0  0  0  0  0  0  0  0  0
  -11.5144   -0.5098   28.7563 C   0  0  0  0  0  0  0  0  0  0  0  0
  -10.8002    0.7870   28.6457 C   0  0  0  0  0  0  0  0  0  0  0  0
  -12.8088    1.9243   28.0990 C   0  0  0  0  0  0  0  0  0  0  0  0
  -13.1739    3.2457   28.1945 C   0  0  0  0  0  0  0  0  0  0  0  0
  1  2  1  0
  1  4  1  0
  4  5  1  0
  5  6  1  6
  5  7  1  0
  7  8  1  0
  3 14  1  0
 17 18  1  0
 18 19  1  0
 20 21  1  0
 18 23  1  0
 22 23  1  0
 18 24  1  0
 24 25  2  0
 19 20  1  0
 21 22  1  0
  6  9  2  0
  9 10  1  0
 10 11  2  0
 11 13  1  0
 13 12  2  0
 12  6  1  0
  2  3  2  0
  3 15  1  0
 15 16  2  0
 16 17  1  0
 17  8  2  0
  8  2  1  0
M  END
$$$$
