No_1778-complexes_sdf/6BKW-FPZ/2024-09-17-14-21-01/
     RDKit          3D

 19 20  0  0  0  0  0  0  0  0999 V2000
   -7.9040    3.9820   27.1177 C   0  0  0  0  0  0  0  0  0  0  0  0
   -9.0711    4.3164   27.0630 C   0  0  0  0  0  0  0  0  0  0  0  0
   -9.5182    5.5541   27.5777 C   0  0  0  0  0  0  0  0  0  0  0  0
   -6.9424    4.7983   27.8424 C   0  0  0  0  0  0  0  0  0  0  0  0
   -7.3526    5.9739   28.3909 C   0  0  0  0  0  0  0  0  0  0  0  0
   -8.6479    6.3742   28.2169 C   0  0  0  0  0  0  0  0  0  0  0  0
   -9.9202    3.2912   26.3880 C   0  0  0  0  0  0  0  0  0  0  0  0
  -10.7087    2.5868   27.0345 C   0  0  0  0  0  0  0  0  0  0  0  0
  -10.7909    2.7332   28.5295 C   0  0  0  0  0  0  0  0  0  0  0  0
  -11.5103    1.4543   26.5254 C   0  0  0  0  0  0  0  0  0  0  0  0
  -12.2908    0.8679   27.0728 C   0  0  0  0  0  0  0  0  0  0  0  0
  -11.8140    1.9656   29.2310 C   0  0  0  0  0  0  0  0  0  0  0  0
  -12.5301    1.0240   28.5395 C   0  0  0  0  0  0  0  0  0  0  0  0
   -9.9965    3.4615   24.9506 C   0  0  0  0  0  0  0  0  0  0  0  0
  -10.3214    4.6521   24.2656 C   0  0  0  0  0  0  0  0  0  0  0  0
   -9.6851    2.3465   24.1516 C   0  0  0  0  0  0  0  0  0  0  0  0
   -8.9169    1.2828   24.5884 C   0  0  0  0  0  0  0  0  0  0  0  0
   -8.5209    0.2539   23.7326 C   0  0  0  0  0  0  0  0  0  0  0  0
   -8.9929    0.3112   22.4123 C   0  0  0  0  0  0  0  0  0  0  0  0
  2  7  1  0
  7 14  1  0
 14 15  1  0
 14 16  1  0
 16 17  2  3
 17 18  1  0
 18 19  2  0
  7  8  1  0
  1  2  2  0
  2  3  1  0
  3  6  2  0
  6  5  1  0
  5  4  2  0
  4  1  1  0
  8  9  2  0
  9 12  1  0
 12 13  2  0
 13 11  1  0
 11 10  2  0
 10  8  1  0
M  END
$$$$
