No_1676-complexes_sdf/6BKW-FPZ/2024-09-17-14-21-01/
     RDKit          3D

 22 24  0  0  0  0  0  0  0  0999 V2000
   -7.2496    3.8871   27.4508 C   0  0  0  0  0  0  0  0  0  0  0  0
   -8.5096    4.0291   27.2770 C   0  0  0  0  0  0  0  0  0  0  0  0
   -9.2677    5.1714   27.5773 C   0  0  0  0  0  0  0  0  0  0  0  0
   -9.2765    2.8248   26.8371 C   0  0  0  0  0  0  0  0  0  0  0  0
   -8.6731    1.7312   26.5464 C   0  0  0  0  0  0  0  0  0  0  0  0
   -6.5350    2.6522   27.3724 C   0  0  0  0  0  0  0  0  0  0  0  0
   -7.2308    1.5739   26.9609 C   0  0  0  0  0  0  0  0  0  0  0  0
   -8.5556    6.4044   27.5942 C   0  0  0  0  0  0  0  0  0  0  0  0
  -10.6493    5.1370   27.9320 C   0  0  0  0  0  0  0  0  0  0  0  0
   -6.5557    0.3138   26.7046 C   0  0  0  0  0  0  0  0  0  0  0  0
   -6.8025   -0.4410   25.7623 N   0  0  0  0  0  0  0  0  0  0  0  0
   -5.9750   -1.4010   25.3538 C   0  0  0  0  0  0  0  0  0  0  0  0
   -5.7839   -0.0618   27.7379 O   0  0  0  0  0  0  0  0  0  0  0  0
   -7.2361    6.4430   27.2143 C   0  0  0  0  0  0  0  0  0  0  0  0
   -6.5219    5.1911   27.4350 C   0  0  0  0  0  0  0  0  0  0  0  0
   -6.4899   -2.7502   25.4607 C   0  0  0  0  0  0  0  0  0  0  0  0
   -7.5323   -3.0199   25.7579 C   0  0  0  0  0  0  0  0  0  0  0  0
   -8.4649   -3.4979   25.3317 C   0  0  0  0  0  0  0  0  0  0  0  0
   -9.8400   -3.7777   25.9151 C   0  0  0  0  0  0  0  0  0  0  0  0
  -10.0135   -3.2425   27.2103 C   0  0  0  0  0  0  0  0  0  0  0  0
   -8.9847   -2.5523   27.8534 C   0  0  0  0  0  0  0  0  0  0  0  0
   -7.7749   -2.3967   27.2158 C   0  0  0  0  0  0  0  0  0  0  0  0
  3  9  1  0
  7 10  1  0
 10 11  1  0
 11 12  1  0
 10 13  2  0
 12 16  1  0
 16 17  1  0
  2  4  1  0
  4  5  2  0
  5  7  1  0
  7  6  2  0
  6  1  1  0
 17 18  2  0
 18 19  1  0
 19 20  2  0
 20 21  1  0
 21 22  2  0
 22 17  1  0
  1  2  1  0
  2  3  2  0
  3  8  1  0
  8 14  2  0
 14 15  1  0
 15  1  2  0
M  END
$$$$
