No_1350-complexes_sdf/6BKW-FPZ/2024-09-17-14-21-01/
     RDKit          3D

 17 18  0  0  0  0  0  0  0  0999 V2000
   -7.2496    3.8871   27.4508 C   0  0  1  0  0  0  0  0  0  0  0  0
   -8.5096    4.0291   27.2770 C   0  0  2  0  0  0  0  0  0  0  0  0
   -9.2677    5.1714   27.5773 C   0  0  0  0  0  0  0  0  0  0  0  0
   -9.2765    2.8248   26.8371 C   0  0  0  0  0  0  0  0  0  0  0  0
  -10.4623    3.0171   26.3236 C   0  0  1  0  0  0  0  0  0  0  0  0
  -11.3015    3.9610   26.8543 C   0  0  0  0  0  0  0  0  0  0  0  0
  -10.7070    5.2935   27.2178 C   0  0  0  0  0  0  0  0  0  0  0  0
   -6.5533    4.9227   27.9397 N   0  0  0  0  0  0  0  0  0  0  0  0
   -6.6306    2.7912   27.3217 F   0  0  0  0  0  0  0  0  0  0  0  0
  -10.7796    2.5042   25.0410 C   0  0  0  0  0  0  0  0  0  0  0  0
  -10.8504    3.2710   23.9279 C   0  0  0  0  0  0  0  0  0  0  0  0
  -10.6864    4.5924   24.0117 C   0  0  0  0  0  0  0  0  0  0  0  0
  -11.0750    2.7000   22.5871 C   0  0  0  0  0  0  0  0  0  0  0  0
  -11.0060    3.3799   21.5545 C   0  0  0  0  0  0  0  0  0  0  0  0
  -10.6340    5.4458   22.7931 C   0  0  0  0  0  0  0  0  0  0  0  0
  -10.8480    4.8529   21.5857 C   0  0  0  0  0  0  0  0  0  0  0  0
  -11.0488    1.1820   24.9627 O   0  0  0  0  0  0  0  0  0  0  0  0
  1  2  1  0
  2  3  1  1
  2  4  1  0
  4  5  1  0
  5  6  1  0
  3  7  1  0
  6  7  1  0
  1  8  1  1
  1  9  1  0
  5 10  1  6
 10 11  1  0
 10 17  2  0
 11 12  2  0
 12 15  1  0
 15 16  2  0
 16 14  1  0
 14 13  2  0
 13 11  1  0
M  END
$$$$
