No_1750-complexes_sdf/6BKW-FPZ/2024-09-17-14-21-01/
     RDKit          3D

 14 15  0  0  0  0  0  0  0  0999 V2000
   -7.9040    3.9820   27.1177 C   0  0  0  0  0  0  0  0  0  0  0  0
   -7.8663    4.8694   27.9238 C   0  0  1  0  0  0  0  0  0  0  0  0
   -9.0491    3.8523   26.2542 C   0  0  0  0  0  0  0  0  0  0  0  0
   -9.9827    3.2456   26.6451 C   0  0  0  0  0  0  0  0  0  0  0  0
   -9.1410    5.3568   28.4612 C   0  0  0  0  0  0  0  0  0  0  0  0
  -10.5003    4.9280   28.1786 C   0  0  0  0  0  0  0  0  0  0  0  0
  -10.8684    4.1024   27.2926 C   0  0  2  0  0  0  0  0  0  0  0  0
  -12.3224    3.6649   27.3799 C   0  0  0  0  0  0  0  0  0  0  0  0
  -13.0150    3.6881   26.4292 C   0  0  0  0  0  0  0  0  0  0  0  0
  -14.4303    3.5315   26.4469 C   0  0  0  0  0  0  0  0  0  0  0  0
  -12.8085    3.1271   28.6326 C   0  0  0  0  0  0  0  0  0  0  0  0
  -14.1444    2.8742   28.8140 C   0  0  0  0  0  0  0  0  0  0  0  0
  -14.9578    3.0564   27.6774 C   0  0  0  0  0  0  0  0  0  0  0  0
   -6.8461    5.3543   28.5773 O   0  0  0  0  0  0  0  0  0  0  0  0
  1  2  1  0
  1  3  1  0
  3  4  2  0
  2  5  1  0
  5  6  2  0
  4  7  1  0
  6  7  1  0
  7  8  1  1
  2 14  1  1
  8  9  2  0
  9 10  1  0
 10 13  2  0
 13 12  1  0
 12 11  2  0
 11  8  1  0
M  END
$$$$
