No_1730-complexes_sdf/6BKW-FPZ/2024-09-17-14-21-01/
     RDKit          3D

 40 44  0  0  0  0  0  0  0  0999 V2000
   -7.9040    3.9820   27.1177 C   0  0  0  0  0  0  0  0  0  0  0  0
   -8.2057    2.8231   26.8733 C   0  0  0  0  0  0  0  0  0  0  0  0
   -7.0130    4.3706   28.1140 C   0  0  0  0  0  0  0  0  0  0  0  0
   -9.3829    2.4374   26.1668 C   0  0  0  0  0  0  0  0  0  0  0  0
  -10.0975    3.4171   25.5988 C   0  0  0  0  0  0  0  0  0  0  0  0
   -9.7335    4.7745   25.7705 C   0  0  0  0  0  0  0  0  0  0  0  0
   -8.7317    5.1107   26.5933 C   0  0  0  0  0  0  0  0  0  0  0  0
   -8.3983    6.4679   26.8933 C   0  0  0  0  0  0  0  0  0  0  0  0
   -7.3346    6.7850   27.7126 C   0  0  0  0  0  0  0  0  0  0  0  0
   -6.7763    5.7820   28.3880 C   0  0  0  0  0  0  0  0  0  0  0  0
   -7.4283    1.6440   27.4607 C   0  0  0  0  0  0  0  0  0  0  0  0
   -6.0458    1.7685   27.6513 C   0  0  0  0  0  0  0  0  0  0  0  0
   -5.2968    0.6829   28.1524 C   0  0  0  0  0  0  0  0  0  0  0  0
   -5.3073   -0.2947   27.8673 C   0  0  0  0  0  0  0  0  0  0  0  0
   -4.5905   -1.3786   28.4456 C   0  0  0  0  0  0  0  0  0  0  0  0
   -3.5884   -1.0136   29.4230 C   0  0  0  0  0  0  0  0  0  0  0  0
   -3.4858    0.3227   29.7568 C   0  0  0  0  0  0  0  0  0  0  0  0
   -4.2592    1.2305   29.2022 C   0  0  0  0  0  0  0  0  0  0  0  0
  -11.2264    3.1150   24.6788 C   0  0  0  0  0  0  0  0  0  0  0  0
  -11.2653    3.5682   23.4409 C   0  0  0  0  0  0  0  0  0  0  0  0
  -10.3370    4.0028   22.7658 C   0  0  0  0  0  0  0  0  0  0  0  0
  -10.3346    4.4726   21.3821 C   0  0  0  0  0  0  0  0  0  0  0  0
  -11.5325    4.3714   20.7171 C   0  0  0  0  0  0  0  0  0  0  0  0
  -12.6794    3.8785   21.4108 C   0  0  0  0  0  0  0  0  0  0  0  0
  -12.5105    3.4683   22.7921 C   0  0  0  0  0  0  0  0  0  0  0  0
  -12.1547    2.4142   25.2520 O   0  0  0  0  0  0  0  0  0  0  0  0
   -2.7446   -2.0842   30.0324 C   0  0  0  0  0  0  0  0  0  0  0  0
   -3.4667   -2.9159   30.8437 C   0  0  0  0  0  0  0  0  0  0  0  0
   -3.5950   -2.9056   31.8703 C   0  0  0  0  0  0  0  0  0  0  0  0
   -3.0800   -1.7387   32.7210 C   0  0  0  0  0  0  0  0  0  0  0  0
   -3.8323   -0.8229   33.3928 C   0  0  0  0  0  0  0  0  0  0  0  0
   -1.6033   -1.6270   32.8269 C   0  0  0  0  0  0  0  0  0  0  0  0
   -1.1351   -2.0255   33.9944 N   0  0  0  0  0  0  0  0  0  0  0  0
   -1.3713   -1.4894   35.0029 C   0  0  0  0  0  0  0  0  0  0  0  0
   -0.7342   -1.7315   36.2795 C   0  0  0  0  0  0  0  0  0  0  0  0
   -2.5138   -0.5167   35.3034 C   0  0  0  0  0  0  0  0  0  0  0  0
   -3.6449   -0.4251   34.5756 C   0  0  0  0  0  0  0  0  0  0  0  0
   -0.4843   -0.8670   37.1639 C   0  0  0  0  0  0  0  0  0  0  0  0
    0.3318   -1.0051   38.2977 C   0  0  0  0  0  0  0  0  0  0  0  0
    0.5423    0.0702   39.2550 C   0  0  0  0  0  0  0  0  0  0  0  0
  2 11  1  0
 11 12  2  3
 12 13  1  0
  5 19  1  0
 19 20  1  0
 19 26  2  0
 16 27  1  0
 27 28  1  0
 28 29  2  3
 29 30  1  0
 30 31  1  0
 30 32  1  0
 32 33  1  0
 33 34  1  0
 34 35  2  3
 34 36  1  0
 31 37  2  0
 36 37  2  0
 35 38  1  0
 38 39  1  0
 39 40  2  0
 20 21  2  0
 21 22  1  0
 22 23  2  0
 23 24  1  0
 24 25  2  0
 25 20  1  0
 13 14  2  0
 14 15  1  0
 15 16  2  0
 16 17  1  0
 17 18  2  0
 18 13  1  0
  1  3  2  0
  3 10  1  0
 10  9  2  0
  9  8  1  0
  8  7  2  0
  1  2  1  0
  2  4  2  0
  4  5  1  0
  5  6  2  0
  6  7  1  0
  7  1  1  0
M  END
$$$$
