No_1279-complexes_sdf/6BKW-FPZ/2024-09-17-14-21-01/
     RDKit          3D

 20 22  0  0  0  0  0  0  0  0999 V2000
   -7.7129    4.2099   27.0854 C   0  0  0  0  0  0  0  0  0  0  0  0
   -7.7814    5.1722   27.8972 C   0  0  0  0  0  0  0  0  0  0  0  0
   -8.8998    3.8713   26.3707 C   0  0  0  0  0  0  0  0  0  0  0  0
   -9.9938    4.6774   26.5446 C   0  0  0  0  0  0  0  0  0  0  0  0
   -8.7789    6.1536   27.9256 C   0  0  0  0  0  0  0  0  0  0  0  0
   -9.9428    5.8398   27.2296 C   0  0  0  0  0  0  0  0  0  0  0  0
   -8.9119    2.6447   25.5685 C   0  0  0  0  0  0  0  0  0  0  0  0
   -9.7323    2.5751   24.5467 N   0  0  0  0  0  0  0  0  0  0  0  0
   -9.7034    1.4552   23.7977 C   0  0  0  0  0  0  0  0  0  0  0  0
   -8.1806    1.5777   25.8871 C   0  0  0  0  0  0  0  0  0  0  0  0
   -8.1656    0.4090   25.1972 C   0  0  0  0  0  0  0  0  0  0  0  0
   -8.9715    0.3795   24.0727 C   0  0  0  0  0  0  0  0  0  0  0  0
  -10.6242    1.4687   22.5987 C   0  0  0  0  0  0  0  0  0  0  0  0
  -11.9297    1.4566   22.8649 C   0  0  0  0  0  0  0  0  0  0  0  0
  -12.4145    1.4517   24.0939 C   0  0  0  0  0  0  0  0  0  0  0  0
  -11.9908    1.2385   25.0759 C   0  0  0  0  0  0  0  0  0  0  0  0
  -12.8923    1.5775   26.3708 C   0  0  0  0  0  0  0  0  0  0  0  0
  -14.1194    1.9903   26.1950 C   0  0  0  0  0  0  0  0  0  0  0  0
  -14.6130    2.2131   24.9463 C   0  0  0  0  0  0  0  0  0  0  0  0
  -13.8605    2.0699   23.9112 C   0  0  0  0  0  0  0  0  0  0  0  0
  3  7  1  0
  9 13  1  0
 13 14  2  3
 14 15  1  0
 15 16  2  0
 16 17  1  0
 17 18  2  0
 18 19  1  0
 19 20  2  0
 20 15  1  0
  1  2  2  0
  2  5  1  0
  5  6  2  0
  6  4  1  0
  4  3  2  0
  3  1  1  0
  7  8  2  0
  8  9  1  0
  9 12  2  0
 12 11  1  0
 11 10  2  0
 10  7  1  0
M  END
$$$$
