No_127-complexes_sdf/6BKW-FPZ/2024-09-17-14-21-01/
     RDKit          3D

 22 23  0  0  0  0  0  0  0  0999 V2000
   -7.9040    3.9820   27.1177 C   0  0  0  0  0  0  0  0  0  0  0  0
   -7.8663    4.8694   27.9238 C   0  0  1  0  0  0  0  0  0  0  0  0
   -7.4547    2.7080   27.4594 C   0  0  0  0  0  0  0  0  0  0  0  0
   -7.9337    1.5946   26.8372 C   0  0  0  0  0  0  0  0  0  0  0  0
   -8.9032    1.7881   25.8510 C   0  0  0  0  0  0  0  0  0  0  0  0
   -9.3787    2.9871   25.5530 C   0  0  0  0  0  0  0  0  0  0  0  0
   -8.9781    4.0300   26.2200 C   0  0  0  0  0  0  0  0  0  0  0  0
   -7.0697    4.8849   28.9766 F   0  0  0  0  0  0  0  0  0  0  0  0
   -8.4034    6.2587   27.6886 C   0  0  0  0  0  0  0  0  0  0  0  0
   -8.3913    6.9653   26.8765 C   0  0  0  0  0  0  0  0  0  0  0  0
   -7.5149    6.8042   25.7435 C   0  0  0  0  0  0  0  0  0  0  0  0
   -7.3588    0.2675   27.1433 C   0  0  0  0  0  0  0  0  0  0  0  0
   -8.0874   -0.8157   27.3097 C   0  0  0  0  0  0  0  0  0  0  0  0
   -9.5421   -0.7015   27.2100 C   0  0  0  0  0  0  0  0  0  0  0  0
  -10.3421   -0.4586   27.8505 C   0  0  0  0  0  0  0  0  0  0  0  0
  -11.7641   -0.2943   27.7261 C   0  0  0  0  0  0  0  0  0  0  0  0
  -12.1876   -0.5989   26.4846 C   0  0  0  0  0  0  0  0  0  0  0  0
  -11.3467   -1.0241   25.5416 C   0  0  0  0  0  0  0  0  0  0  0  0
   -9.9907   -1.0537   25.8265 C   0  0  0  0  0  0  0  0  0  0  0  0
   -7.5813   -2.0784   27.7405 C   0  0  0  0  0  0  0  0  0  0  0  0
   -7.9177   -2.7781   28.4579 C   0  0  0  0  0  0  0  0  0  0  0  0
   -7.3191   -4.0519   28.9163 C   0  0  0  0  0  0  0  0  0  0  0  0
  1  2  1  0
  2  8  1  6
  2  9  1  0
  9 10  2  3
 10 11  1  0
  4 12  1  0
 12 13  2  3
 13 14  1  0
 13 20  1  0
 20 21  2  3
 21 22  1  0
 14 15  2  0
 15 16  1  0
 16 17  2  0
 17 18  1  0
 18 19  2  0
 19 14  1  0
  1  3  2  0
  3  4  1  0
  4  5  2  0
  5  6  1  0
  6  7  2  0
  7  1  1  0
M  END
$$$$
