No_1354-complexes_sdf/6BKW-FPZ/2024-09-17-14-21-01/
     RDKit          3D

 28 31  0  0  0  0  0  0  0  0999 V2000
   -7.9040    3.9820   27.1177 C   0  0  0  0  0  0  0  0  0  0  0  0
   -8.2057    2.8231   26.8733 C   0  0  0  0  0  0  0  0  0  0  0  0
   -7.0130    4.3706   28.1140 C   0  0  0  0  0  0  0  0  0  0  0  0
   -9.3829    2.4374   26.1668 C   0  0  0  0  0  0  0  0  0  0  0  0
   -9.6934    1.0230   26.0164 C   0  0  0  0  0  0  0  0  0  0  0  0
   -8.8160    0.1163   26.5021 C   0  0  0  0  0  0  0  0  0  0  0  0
   -7.6769    0.4330   27.1868 C   0  0  0  0  0  0  0  0  0  0  0  0
   -7.3087    1.7883   27.4390 C   0  0  0  0  0  0  0  0  0  0  0  0
   -8.4522    5.1758   26.3848 C   0  0  0  0  0  0  0  0  0  0  0  0
   -6.8307    5.7691   28.5671 C   0  0  0  0  0  0  0  0  0  0  0  0
   -8.3595    6.4969   26.7883 C   0  0  0  0  0  0  0  0  0  0  0  0
   -7.4858    6.7537   27.8505 C   0  0  0  0  0  0  0  0  0  0  0  0
   -6.8058   -0.6189   27.7720 C   0  0  0  0  0  0  0  0  0  0  0  0
   -5.5807   -0.3277   28.1195 N   0  0  0  0  0  0  0  0  0  0  0  0
   -4.7946    0.4902   27.6376 C   0  0  0  0  0  0  0  0  0  0  0  0
   -3.5531    0.7676   28.4719 C   0  0  0  0  0  0  0  0  0  0  0  0
   -4.9796   -1.0540   29.2775 C   0  0  0  0  0  0  0  0  0  0  0  0
   -3.8017   -0.2779   29.6005 C   0  0  0  0  0  0  0  0  0  0  0  0
   -7.2836   -1.7500   27.9620 O   0  0  0  0  0  0  0  0  0  0  0  0
   -2.9124   -0.4661   30.6684 C   0  0  0  0  0  0  0  0  0  0  0  0
   -2.0557   -1.2503   30.6841 O   0  0  0  0  0  0  0  0  0  0  0  0
   -3.3588    0.1665   31.8180 O   0  0  0  0  0  0  0  0  0  0  0  0
  -10.2412    3.3766   25.5206 C   0  0  2  0  0  0  0  0  0  0  0  0
  -11.5325    3.2807   25.4683 C   0  0  0  0  0  0  0  0  0  0  0  0
   -9.6129    4.4301   24.6473 C   0  0  0  0  0  0  0  0  0  0  0  0
   -9.2027    4.9802   25.2957 N   0  0  0  0  0  0  0  0  0  0  0  0
  -12.2647    3.2503   24.4449 C   0  0  0  0  0  0  0  0  0  0  0  0
  -13.7077    3.1013   24.4228 C   0  0  0  0  0  0  0  0  0  0  0  0
  1  2  1  0
  7 13  1  0
 13 14  1  0
 14 15  1  0
 15 16  2  0
 14 17  1  0
 16 18  1  0
 17 18  2  0
 13 19  2  0
 18 20  1  0
 20 21  2  0
 20 22  1  0
  4 23  1  0
 23 24  1  6
 23 25  1  0
  9 26  1  0
 25 26  2  0
 24 27  2  3
 27 28  1  0
  2  4  2  0
  4  5  1  0
  5  6  2  0
  6  7  1  0
  7  8  2  0
  8  2  1  0
  1  3  2  0
  3 10  1  0
 10 12  2  0
 12 11  1  0
 11  9  2  0
  9  1  1  0
M  END
$$$$
