No_1409-complexes_sdf/6BKW-FPZ/2024-09-17-14-21-01/
     RDKit          3D

 15 16  0  0  0  0  0  0  0  0999 V2000
   -7.9040    3.9820   27.1177 C   0  0  0  0  0  0  0  0  0  0  0  0
   -9.0711    4.3164   27.0630 C   0  0  0  0  0  0  0  0  0  0  0  0
   -9.9692    3.7224   26.1073 C   0  0  0  0  0  0  0  0  0  0  0  0
   -7.4776    2.6994   26.6283 C   0  0  0  0  0  0  0  0  0  0  0  0
   -8.4406    1.9440   25.9776 C   0  0  0  0  0  0  0  0  0  0  0  0
   -9.6379    2.5001   25.6881 C   0  0  0  0  0  0  0  0  0  0  0  0
   -6.7822    4.7986   28.1887 Cl  0  0  0  0  0  0  0  0  0  0  0  0
  -10.6003    1.7344   24.8207 C   0  0  1  0  0  0  0  0  0  0  0  0
  -10.4890    1.8756   23.5066 C   0  0  0  0  0  0  0  0  0  0  0  0
  -11.3312    1.1800   22.5511 C   0  0  0  0  0  0  0  0  0  0  0  0
  -11.1885    1.4362   21.1829 C   0  0  0  0  0  0  0  0  0  0  0  0
  -10.1844    2.3357   20.6911 C   0  0  0  0  0  0  0  0  0  0  0  0
   -9.4713    3.0665   21.5837 C   0  0  0  0  0  0  0  0  0  0  0  0
   -9.5880    2.9150   22.8934 C   0  0  0  0  0  0  0  0  0  0  0  0
  -11.3025    0.9133   25.3538 F   0  0  0  0  0  0  0  0  0  0  0  0
  1  7  1  0
  6  8  1  0
  8 15  1  6
  8  9  1  0
  1  2  2  0
  2  3  1  0
  3  6  2  0
  6  5  1  0
  5  4  2  0
  4  1  1  0
  9 10  2  0
 10 11  1  0
 11 12  2  0
 12 13  1  0
 13 14  2  0
 14  9  1  0
M  END
$$$$
