No_1446-complexes_sdf/6BKW-FPZ/2024-09-17-14-21-01/
     RDKit          3D

 38 41  0  0  0  0  0  0  0  0999 V2000
   -7.9040    3.9820   27.1177 C   0  0  0  0  0  0  0  0  0  0  0  0
   -8.2057    2.8231   26.8733 C   0  0  2  0  0  0  0  0  0  0  0  0
   -7.0130    4.3706   28.1140 C   0  0  0  0  0  0  0  0  0  0  0  0
   -9.3829    2.4374   26.1668 C   0  0  0  0  0  0  0  0  0  0  0  0
  -10.0975    3.4171   25.5988 C   0  0  1  0  0  0  0  0  0  0  0  0
   -9.7335    4.7745   25.7705 C   0  0  0  0  0  0  0  0  0  0  0  0
   -8.7317    5.1107   26.5933 C   0  0  0  0  0  0  0  0  0  0  0  0
   -8.4060    6.4842   26.8915 C   0  0  0  0  0  0  0  0  0  0  0  0
   -7.3130    6.8159   27.6705 C   0  0  0  0  0  0  0  0  0  0  0  0
   -6.7663    5.7960   28.3758 C   0  0  0  0  0  0  0  0  0  0  0  0
  -11.1995    3.0953   24.6618 C   0  0  1  0  0  0  0  0  0  0  0  0
  -10.9004    2.9298   23.4363 C   0  0  2  0  0  0  0  0  0  0  0  0
  -10.0134    2.3363   22.8967 C   0  0  0  0  0  0  0  0  0  0  0  0
  -11.6366    3.8008   22.3907 C   0  0  0  0  0  0  0  0  0  0  0  0
  -10.1200    1.2722   22.1567 C   0  0  0  0  0  0  0  0  0  0  0  0
   -9.1644    0.1877   22.2311 C   0  0  0  0  0  0  0  0  0  0  0  0
   -9.3364   -1.0290   21.5788 C   0  0  0  0  0  0  0  0  0  0  0  0
  -10.2922   -1.0444   20.5488 C   0  0  0  0  0  0  0  0  0  0  0  0
  -11.1485    0.0175   20.3339 C   0  0  0  0  0  0  0  0  0  0  0  0
  -11.0474    1.1099   21.1225 C   0  0  0  0  0  0  0  0  0  0  0  0
   -7.4109    1.6271   27.4691 C   0  0  0  0  0  0  0  0  0  0  0  0
   -6.8251    0.7559   26.5565 C   0  0  0  0  0  0  0  0  0  0  0  0
   -7.0409   -0.6439   27.0654 C   0  0  0  0  0  0  0  0  0  0  0  0
   -8.2265   -0.9365   27.5270 C   0  0  0  0  0  0  0  0  0  0  0  0
   -8.3809   -1.9959   28.4730 C   0  0  0  0  0  0  0  0  0  0  0  0
   -7.2461   -2.7587   28.8007 C   0  0  0  0  0  0  0  0  0  0  0  0
   -6.0249   -2.4720   28.3018 C   0  0  0  0  0  0  0  0  0  0  0  0
   -5.8451   -1.3701   27.4894 C   0  0  0  0  0  0  0  0  0  0  0  0
   -4.5477   -1.0261   26.9792 C   0  0  0  0  0  0  0  0  0  0  0  0
   -4.0051    0.1467   27.3770 C   0  0  0  0  0  0  0  0  0  0  0  0
   -4.1455    0.6119   28.5676 C   0  0  0  0  0  0  0  0  0  0  0  0
   -3.8479   -0.0477   29.5894 F   0  0  0  0  0  0  0  0  0  0  0  0
   -5.1770    1.5219   28.8668 F   0  0  0  0  0  0  0  0  0  0  0  0
  -12.4725    2.9239   25.2525 C   0  0  0  0  0  0  0  0  0  0  0  0
  -13.4637    3.5801   24.8097 C   0  0  0  0  0  0  0  0  0  0  0  0
  -14.6426    3.6262   25.6340 C   0  0  0  0  0  0  0  0  0  0  0  0
  -14.7135    2.8245   26.6790 C   0  0  0  0  0  0  0  0  0  0  0  0
  -15.8208    2.8443   27.5493 C   0  0  0  0  0  0  0  0  0  0  0  0
  1  2  1  0
  2  4  1  0
  5  4  1  6
  5  6  1  0
  6  7  1  0
  5 11  1  0
 11 12  1  0
 12 13  1  0
 12 14  1  1
 13 15  1  0
  2 21  1  1
 21 22  1  0
 22 23  1  0
 28 29  1  0
 29 30  1  0
 30 31  2  3
 31 32  1  0
 31 33  1  0
 11 34  1  1
 34 35  2  3
 35 36  1  0
 36 37  2  3
 37 38  1  0
 15 16  2  0
 16 17  1  0
 17 18  2  0
 18 19  1  0
 19 20  2  0
 20 15  1  0
 23 24  2  0
 24 25  1  0
 25 26  2  0
 26 27  1  0
 27 28  2  0
 28 23  1  0
  1  3  2  0
  3 10  1  0
 10  9  2  0
  9  8  1  0
  8  7  2  0
  7  1  1  0
M  END
$$$$
