No_1257-complexes_sdf/6BKW-FPZ/2024-09-17-14-21-01/
     RDKit          3D

 14 15  0  0  0  0  0  0  0  0999 V2000
   -7.9040    3.9820   27.1177 C   0  0  0  0  0  0  0  0  0  0  0  0
   -7.8663    4.8694   27.9238 C   0  0  0  0  0  0  0  0  0  0  0  0
   -9.0501    3.8017   26.2617 C   0  0  0  0  0  0  0  0  0  0  0  0
  -10.0189    4.7608   26.3707 C   0  0  0  0  0  0  0  0  0  0  0  0
   -8.6973    5.9722   27.8968 C   0  0  0  0  0  0  0  0  0  0  0  0
   -9.8216    5.8946   27.1241 C   0  0  0  0  0  0  0  0  0  0  0  0
   -9.1437    2.6293   25.4175 C   0  0  0  0  0  0  0  0  0  0  0  0
   -9.9232    2.7400   24.3320 N   0  0  0  0  0  0  0  0  0  0  0  0
   -9.9926    1.7433   23.3986 C   0  0  0  0  0  0  0  0  0  0  0  0
   -8.4955    1.6362   25.6277 O   0  0  0  0  0  0  0  0  0  0  0  0
  -10.4199    2.1169   22.1466 C   0  0  0  0  0  0  0  0  0  0  0  0
  -10.7590    3.4461   21.8607 C   0  0  0  0  0  0  0  0  0  0  0  0
  -10.7031    4.4074   22.9408 C   0  0  0  0  0  0  0  0  0  0  0  0
  -10.2911    4.0833   24.0342 C   0  0  0  0  0  0  0  0  0  0  0  0
  3  7  1  0
  7  8  1  0
  8  9  1  0
  7 10  2  0
 11 12  1  0
 12 13  1  0
  8 14  1  0
 13 14  1  0
  9 11  1  0
  1  2  2  0
  2  5  1  0
  5  6  2  0
  6  4  1  0
  4  3  2  0
  3  1  1  0
M  END
$$$$
