No_1277-complexes_sdf/6BKW-FPZ/2024-09-17-14-21-01/
     RDKit          3D

 38 41  0  0  0  0  0  0  0  0999 V2000
   -7.2496    3.8871   27.4508 C   0  0  0  0  0  0  0  0  0  0  0  0
   -7.9379    4.9063   27.8518 C   0  0  0  0  0  0  0  0  0  0  0  0
   -9.3460    4.8223   27.8695 C   0  0  0  0  0  0  0  0  0  0  0  0
   -7.8628    2.6163   27.1065 C   0  0  0  0  0  0  0  0  0  0  0  0
   -9.2787    2.5744   27.1970 C   0  0  0  0  0  0  0  0  0  0  0  0
  -10.0108    3.6770   27.6340 C   0  0  0  0  0  0  0  0  0  0  0  0
  -11.4855    3.5731   27.7420 C   0  0  0  0  0  0  0  0  0  0  0  0
  -11.9299    2.8562   28.8221 C   0  0  0  0  0  0  0  0  0  0  0  0
  -13.2938    2.7194   29.1618 C   0  0  0  0  0  0  0  0  0  0  0  0
  -14.1926    3.3847   28.3454 C   0  0  0  0  0  0  0  0  0  0  0  0
  -13.7349    4.1610   27.2718 C   0  0  0  0  0  0  0  0  0  0  0  0
  -12.3654    4.3305   26.9983 C   0  0  0  0  0  0  0  0  0  0  0  0
   -6.9820    1.2656   26.7349 Cl  0  0  0  0  0  0  0  0  0  0  0  0
   -7.3229    6.0422   28.0908 F   0  0  0  0  0  0  0  0  0  0  0  0
  -13.7524    1.8612   30.2729 C   0  0  0  0  0  0  0  0  0  0  0  0
  -13.9721    0.6693   30.0099 O   0  0  0  0  0  0  0  0  0  0  0  0
  -13.9125    2.4006   31.4683 O   0  0  0  0  0  0  0  0  0  0  0  0
  -14.4849    1.7350   32.5375 C   0  0  0  0  0  0  0  0  0  0  0  0
  -13.9339    2.1390   33.7364 C   0  0  0  0  0  0  0  0  0  0  0  0
  -13.3011    3.3513   33.8784 C   0  0  0  0  0  0  0  0  0  0  0  0
  -12.8098    3.8669   34.9427 C   0  0  0  0  0  0  0  0  0  0  0  0
  -11.9932    5.0879   35.0221 C   0  0  0  0  0  0  0  0  0  0  0  0
  -11.4205    5.5273   36.1948 C   0  0  0  0  0  0  0  0  0  0  0  0
  -11.6172    4.8061   37.3925 C   0  0  0  0  0  0  0  0  0  0  0  0
  -12.3531    3.6498   37.3777 C   0  0  0  0  0  0  0  0  0  0  0  0
  -12.8654    3.1634   36.2312 C   0  0  0  0  0  0  0  0  0  0  0  0
  -10.9947    5.3638   38.6450 C   0  0  0  0  0  0  0  0  0  0  0  0
  -11.0332    6.6204   38.9770 N   0  0  0  0  0  0  0  0  0  0  0  0
  -11.3000    7.0692   40.0992 C   0  0  0  0  0  0  0  0  0  0  0  0
  -10.6307    8.3477   40.2629 C   0  0  0  0  0  0  0  0  0  0  0  0
  -10.0349    8.6868   38.9349 C   0  0  1  0  0  0  0  0  0  0  0  0
  -10.4874    7.6651   38.0755 C   0  0  0  0  0  0  0  0  0  0  0  0
  -10.6353    4.4953   39.5269 O   0  0  0  0  0  0  0  0  0  0  0  0
   -9.4611    9.9405   38.5634 C   0  0  0  0  0  0  0  0  0  0  0  0
   -8.1314   10.1079   38.8641 N   0  0  0  0  0  0  0  0  0  0  0  0
   -7.3835    9.2768   39.5503 C   0  0  0  0  0  0  0  0  0  0  0  0
   -6.0697    9.6213   39.7867 N   0  0  0  0  0  0  0  0  0  0  0  0
   -7.2862   11.1545   38.4458 C   0  0  0  0  0  0  0  0  0  0  0  0
  6  7  1  0
  4 13  1  0
  2 14  1  0
  9 15  1  0
 15 16  2  0
 15 17  1  0
 17 18  1  0
 18 19  1  0
 19 20  2  3
 20 21  1  0
 24 27  1  0
 27 28  1  0
 28 29  1  0
 29 30  2  0
 30 31  1  0
 28 32  1  0
 31 32  1  0
 27 33  2  0
 31 34  1  6
 34 35  1  0
 35 36  1  0
 36 37  2  0
 35 38  1  0
  1  2  2  0
  2  3  1  0
  3  6  2  0
  6  5  1  0
  5  4  2  0
  4  1  1  0
  7  8  2  0
  8  9  1  0
  9 10  2  0
 10 11  1  0
 11 12  2  0
 12  7  1  0
 21 22  2  0
 22 23  1  0
 23 24  2  0
 24 25  1  0
 25 26  2  0
 26 21  1  0
M  END
$$$$
