No_1892-complexes_sdf/6BKW-FPZ/2024-09-17-14-21-01/
     RDKit          3D

 14 15  0  0  0  0  0  0  0  0999 V2000
   -7.7129    4.2099   27.0854 C   0  0  0  0  0  0  0  0  0  0  0  0
   -8.2112    3.0637   26.9225 C   0  0  0  0  0  0  0  0  0  0  0  0
   -8.5108    5.3904   26.9436 C   0  0  0  0  0  0  0  0  0  0  0  0
   -9.7256    5.1955   26.3518 C   0  0  0  0  0  0  0  0  0  0  0  0
   -9.4995    2.8258   26.4878 C   0  0  0  0  0  0  0  0  0  0  0  0
  -10.2542    3.9691   26.2055 C   0  0  0  0  0  0  0  0  0  0  0  0
   -7.7479    7.0774   27.2574 Br  0  0  0  0  0  0  0  0  0  0  0  0
   -7.3654    1.8388   27.2499 C   0  0  0  0  0  0  0  0  0  0  0  0
   -6.0665    2.0181   27.7757 C   0  0  0  0  0  0  0  0  0  0  0  0
   -5.2756    0.8538   28.0552 C   0  0  0  0  0  0  0  0  0  0  0  0
   -5.8357   -0.3835   27.8849 C   0  0  0  0  0  0  0  0  0  0  0  0
   -7.7837    0.5191   27.1261 C   0  0  0  0  0  0  0  0  0  0  0  0
   -7.1237   -0.5146   27.4796 C   0  0  0  0  0  0  0  0  0  0  0  0
   -4.0481    1.0836   28.5143 F   0  0  0  0  0  0  0  0  0  0  0  0
  3  7  1  0
  2  8  1  0
 10 14  1  0
  1  2  2  0
  2  5  1  0
  5  6  2  0
  6  4  1  0
  4  3  2  0
  3  1  1  0
  8  9  2  0
  9 10  1  0
 10 11  2  0
 11 13  1  0
 13 12  2  0
 12  8  1  0
M  END
$$$$
