No_1857-complexes_sdf/6BKW-FPZ/2024-09-17-14-21-01/
     RDKit          3D

 13 13  0  0  0  0  0  0  0  0999 V2000
   -7.2496    3.8871   27.4508 C   0  0  0  0  0  0  0  0  0  0  0  0
   -7.9379    4.9063   27.8518 C   0  0  0  0  0  0  0  0  0  0  0  0
   -7.5112    6.1898   27.6280 C   0  0  0  0  0  0  0  0  0  0  0  0
   -9.3085    4.6933   28.2930 C   0  0  0  0  0  0  0  0  0  0  0  0
   -7.5786    2.7932   27.1179 C   0  0  0  0  0  0  0  0  0  0  0  0
   -9.8183    3.3904   28.2375 C   0  0  0  0  0  0  0  0  0  0  0  0
   -9.0009    2.3921   27.6390 C   0  0  0  0  0  0  0  0  0  0  0  0
   -9.4271    0.9910   27.4888 C   0  0  0  0  0  0  0  0  0  0  0  0
   -8.5361    0.1404   27.8760 F   0  0  0  0  0  0  0  0  0  0  0  0
  -10.5317    0.8930   28.3161 F   0  0  0  0  0  0  0  0  0  0  0  0
   -9.8041    0.7647   26.2545 F   0  0  0  0  0  0  0  0  0  0  0  0
   -8.1422    7.3808   26.9922 C   0  0  0  0  0  0  0  0  0  0  0  0
   -7.3019    8.4405   26.8665 N   0  0  0  0  0  0  0  0  0  0  0  0
  2  3  1  0
  7  8  1  0
  8  9  1  0
  8 10  1  0
  8 11  1  0
  3 12  2  3
 12 13  1  0
  1  2  2  0
  2  4  1  0
  4  6  2  0
  6  7  1  0
  7  5  2  0
  5  1  1  0
M  END
$$$$
