No_1111-complexes_sdf/6BKW-FPZ/2024-09-17-14-21-01/
     RDKit          3D

 16 18  0  0  0  0  0  0  0  0999 V2000
   -7.9040    3.9820   27.1177 C   0  0  0  0  0  0  0  0  0  0  0  0
   -7.8663    4.8694   27.9238 C   0  0  0  0  0  0  0  0  0  0  0  0
   -7.4547    2.7080   27.4594 C   0  0  0  0  0  0  0  0  0  0  0  0
   -8.7044    6.0412   27.8492 C   0  0  0  0  0  0  0  0  0  0  0  0
   -7.9501    1.5743   26.8848 C   0  0  0  0  0  0  0  0  0  0  0  0
   -8.8773    1.7289   25.8707 C   0  0  0  0  0  0  0  0  0  0  0  0
   -9.3595    2.9624   25.5238 C   0  0  0  0  0  0  0  0  0  0  0  0
   -9.0069    4.0555   26.2453 C   0  0  0  0  0  0  0  0  0  0  0  0
   -9.5766    5.3100   26.0329 C   0  0  0  0  0  0  0  0  0  0  0  0
   -9.4009    6.3621   26.8266 C   0  0  0  0  0  0  0  0  0  0  0  0
   -7.3337    0.2538   27.1533 C   0  0  0  0  0  0  0  0  0  0  0  0
   -6.0358    0.1698   27.6734 C   0  0  0  0  0  0  0  0  0  0  0  0
   -5.5329   -0.9802   28.2088 C   0  0  0  0  0  0  0  0  0  0  0  0
   -6.3871   -2.0847   28.1911 C   0  0  0  0  0  0  0  0  0  0  0  0
   -8.0278   -0.9337   27.3974 C   0  0  0  0  0  0  0  0  0  0  0  0
   -7.6265   -2.0454   27.8629 C   0  0  0  0  0  0  0  0  0  0  0  0
  5 11  1  0
  1  3  1  0
  3  5  2  0
  5  6  1  0
  6  7  2  0
  7  8  1  0
 11 12  2  0
 12 13  1  0
 13 14  2  0
 14 16  1  0
 16 15  2  0
 15 11  1  0
  1  2  2  0
  2  4  1  0
  4 10  2  0
 10  9  1  0
  9  8  2  0
  8  1  1  0
M  END
$$$$
