No_1959-complexes_sdf/6BKW-FPZ/2024-09-17-14-21-01/
     RDKit          3D

 19 21  0  0  0  0  0  0  0  0999 V2000
   -7.2496    3.8871   27.4508 C   0  0  0  0  0  0  0  0  0  0  0  0
   -7.9379    4.9063   27.8518 C   0  0  0  0  0  0  0  0  0  0  0  0
   -8.7729    5.5444   27.0168 C   0  0  0  0  0  0  0  0  0  0  0  0
   -7.7708    3.0049   26.4155 C   0  0  0  0  0  0  0  0  0  0  0  0
   -9.4150    4.8195   25.9760 C   0  0  0  0  0  0  0  0  0  0  0  0
   -8.8843    3.5312   25.7385 C   0  0  0  0  0  0  0  0  0  0  0  0
   -9.4722    2.7950   24.6213 C   0  0  0  0  0  0  0  0  0  0  0  0
   -9.2484    1.4955   24.4387 C   0  0  0  0  0  0  0  0  0  0  0  0
  -10.2980    3.5203   23.6749 C   0  0  0  0  0  0  0  0  0  0  0  0
  -10.8096    2.8894   22.5751 C   0  0  0  0  0  0  0  0  0  0  0  0
   -9.7602    0.8494   23.2895 C   0  0  0  0  0  0  0  0  0  0  0  0
  -10.5760    1.5646   22.3659 C   0  0  0  0  0  0  0  0  0  0  0  0
   -6.2718    3.2821   28.1443 F   0  0  0  0  0  0  0  0  0  0  0  0
  -11.6595    3.4495   21.5507 C   0  0  0  0  0  0  0  0  0  0  0  0
  -11.6520    3.3044   20.4223 C   0  0  0  0  0  0  0  0  0  0  0  0
  -12.5415    3.9288   19.4174 C   0  0  0  0  0  0  0  0  0  0  0  0
  -13.6148    4.6311   19.9292 C   0  0  0  0  0  0  0  0  0  0  0  0
  -12.7385    4.3785   22.1185 C   0  0  0  0  0  0  0  0  0  0  0  0
  -13.7003    4.8194   21.3237 C   0  0  0  0  0  0  0  0  0  0  0  0
  6  7  1  0
  1 13  1  0
 10 14  1  0
 14 15  2  0
 15 16  1  0
 16 17  2  0
 17 19  1  0
 19 18  2  0
 18 14  1  0
  7  8  2  0
  8 11  1  0
 11 12  2  0
 12 10  1  0
 10  9  2  0
  9  7  1  0
  1  2  2  0
  2  3  1  0
  3  5  2  0
  5  6  1  0
  6  4  2  0
  4  1  1  0
M  END
$$$$
