No_1688-complexes_sdf/6BKW-FPZ/2024-09-17-14-21-01/
     RDKit          3D

 22 25  0  0  0  0  0  0  0  0999 V2000
   -7.9040    3.9820   27.1177 C   0  0  0  0  0  0  0  0  0  0  0  0
   -8.2057    2.8231   26.8733 C   0  0  0  0  0  0  0  0  0  0  0  0
   -9.2962    2.4021   26.1155 C   0  0  0  0  0  0  0  0  0  0  0  0
   -6.8682    4.5169   28.0704 C   0  0  0  0  0  0  0  0  0  0  0  0
   -9.5736    0.9953   25.9283 C   0  0  0  0  0  0  0  0  0  0  0  0
   -8.8988    4.9779   26.6987 C   0  0  0  0  0  0  0  0  0  0  0  0
   -9.9269    4.6705   25.8489 C   0  0  0  0  0  0  0  0  0  0  0  0
  -10.0956    3.3634   25.5617 C   0  0  0  0  0  0  0  0  0  0  0  0
  -10.2606    0.3279   26.9042 C   0  0  0  0  0  0  0  0  0  0  0  0
  -11.1814    0.8402   27.6596 C   0  0  0  0  0  0  0  0  0  0  0  0
  -11.8691    0.1569   28.7301 C   0  0  0  0  0  0  0  0  0  0  0  0
  -11.5441   -1.1662   28.9488 C   0  0  0  0  0  0  0  0  0  0  0  0
  -10.6057   -1.7810   28.2052 C   0  0  0  0  0  0  0  0  0  0  0  0
   -9.9422   -1.0800   27.2221 C   0  0  0  0  0  0  0  0  0  0  0  0
  -10.1516    0.7361   24.5157 C   0  0  0  0  0  0  0  0  0  0  0  0
   -9.1847    0.8047   23.5001 C   0  0  0  0  0  0  0  0  0  0  0  0
   -9.6070    0.6965   22.1581 C   0  0  0  0  0  0  0  0  0  0  0  0
  -10.9011    0.4423   21.8609 C   0  0  0  0  0  0  0  0  0  0  0  0
  -11.8219    0.3456   22.9279 C   0  0  0  0  0  0  0  0  0  0  0  0
  -11.4089    0.5432   24.3026 C   0  0  0  0  0  0  0  0  0  0  0  0
   -8.3241    6.2534   27.1143 N   0  0  0  0  0  0  0  0  0  0  0  0
   -7.2280    5.9935   27.9023 C   0  0  0  0  0  0  0  0  0  0  0  0
  1  4  1  0
  3  5  1  0
  5  9  1  0
  5 15  1  0
  6 21  1  0
  4 22  2  0
 21 22  2  0
 15 16  2  0
 16 17  1  0
 17 18  2  0
 18 19  1  0
 19 20  2  0
 20 15  1  0
  1  2  2  0
  2  3  1  0
  3  8  2  0
  8  7  1  0
  7  6  2  0
  6  1  1  0
  9 10  2  0
 10 11  1  0
 11 12  2  0
 12 13  1  0
 13 14  2  0
 14  9  1  0
M  END
$$$$
