No_1403-complexes_sdf/6BKW-FPZ/2024-09-17-14-21-01/
     RDKit          3D

 29 32  0  0  0  0  0  0  0  0999 V2000
   -7.9040    3.9820   27.1177 C   0  0  0  0  0  0  0  0  0  0  0  0
   -7.8663    4.8694   27.9238 C   0  0  0  0  0  0  0  0  0  0  0  0
   -9.0491    3.8523   26.2542 C   0  0  0  0  0  0  0  0  0  0  0  0
   -8.7661    5.9491   27.9690 C   0  0  0  0  0  0  0  0  0  0  0  0
   -9.9295    4.8502   26.2323 C   0  0  0  0  0  0  0  0  0  0  0  0
   -9.8077    5.9288   27.0933 C   0  0  0  0  0  0  0  0  0  0  0  0
   -6.9606    2.7994   27.1981 C   0  0  0  0  0  0  0  0  0  0  0  0
   -5.9007    2.9769   27.8395 O   0  0  0  0  0  0  0  0  0  0  0  0
   -7.4479    1.5579   27.0291 N   0  0  0  0  0  0  0  0  0  0  0  0
   -6.6458    0.3705   27.2191 C   0  0  0  0  0  0  0  0  0  0  0  0
   -7.2675   -0.7738   27.1742 C   0  0  0  0  0  0  0  0  0  0  0  0
   -8.6496   -0.7737   26.9086 C   0  0  0  0  0  0  0  0  0  0  0  0
   -9.4374    0.3133   26.7705 C   0  0  0  0  0  0  0  0  0  0  0  0
   -8.8116    1.4722   26.8880 C   0  0  2  0  0  0  0  0  0  0  0  0
   -9.4761    2.5826   25.9141 N   0  0  0  0  0  0  0  0  0  0  0  0
  -10.2009    2.2925   24.8857 C   0  0  0  0  0  0  0  0  0  0  0  0
  -11.4748    2.5841   24.9408 C   0  0  0  0  0  0  0  0  0  0  0  0
  -12.1539    2.6911   23.8099 C   0  0  0  0  0  0  0  0  0  0  0  0
  -11.5926    2.1966   22.6057 C   0  0  0  0  0  0  0  0  0  0  0  0
  -10.2475    1.8147   22.5877 C   0  0  0  0  0  0  0  0  0  0  0  0
   -9.4875    1.9444   23.7542 C   0  0  0  0  0  0  0  0  0  0  0  0
  -12.3503    2.1406   21.3336 C   0  0  0  0  0  0  0  0  0  0  0  0
  -12.6562    3.1924   20.7768 C   0  0  0  0  0  0  0  0  0  0  0  0
  -11.6790    1.1701   20.3283 C   0  0  0  0  0  0  0  0  0  0  0  0
  -13.6548    1.3473   21.6975 C   0  0  0  0  0  0  0  0  0  0  0  0
  -13.7188    0.3223   22.2921 C   0  0  0  0  0  0  0  0  0  0  0  0
  -14.8049   -0.5606   22.1109 C   0  0  0  0  0  0  0  0  0  0  0  0
  -15.9104   -0.0968   21.4862 C   0  0  0  0  0  0  0  0  0  0  0  0
  -17.0301   -0.9270   21.4183 C   0  0  0  0  0  0  0  0  0  0  0  0
  1  7  1  0
  7  8  2  0
  7  9  1  0
  9 10  1  0
 11 12  1  0
  9 14  1  0
 14 13  1  6
  3 15  1  0
 14 15  1  0
 15 16  1  0
 19 22  1  0
 22 23  1  0
 22 24  1  0
 22 25  1  0
 25 26  2  3
 26 27  1  0
 27 28  2  3
 28 29  1  0
 10 11  1  0
 12 13  1  0
  1  2  2  0
  2  4  1  0
  4  6  2  0
  6  5  1  0
  5  3  2  0
  3  1  1  0
 16 17  2  0
 17 18  1  0
 18 19  2  0
 19 20  1  0
 20 21  2  0
 21 16  1  0
M  END
$$$$
