No_1404-complexes_sdf/6BKW-FPZ/2024-09-17-14-21-01/
     RDKit          3D

 17 19  0  0  0  0  0  0  0  0999 V2000
   -7.9040    3.9820   27.1177 C   0  0  0  0  0  0  0  0  0  0  0  0
   -7.8663    4.8694   27.9238 C   0  0  0  0  0  0  0  0  0  0  0  0
   -9.0501    3.8017   26.2617 C   0  0  0  0  0  0  0  0  0  0  0  0
  -10.0189    4.7608   26.3707 C   0  0  0  0  0  0  0  0  0  0  0  0
   -8.6973    5.9722   27.8968 C   0  0  0  0  0  0  0  0  0  0  0  0
   -9.8216    5.8946   27.1241 C   0  0  0  0  0  0  0  0  0  0  0  0
   -9.1437    2.6293   25.4175 C   0  0  0  0  0  0  0  0  0  0  0  0
   -8.6100    1.5009   25.7781 N   0  0  0  0  0  0  0  0  0  0  0  0
   -8.5030    0.4530   24.9505 C   0  0  0  0  0  0  0  0  0  0  0  0
   -9.9993    2.6371   24.5102 O   0  0  0  0  0  0  0  0  0  0  0  0
   -7.4676   -0.4563   25.3381 C   0  0  0  0  0  0  0  0  0  0  0  0
   -6.8607   -0.3044   26.5364 C   0  0  1  0  0  0  0  0  0  0  0  0
   -7.0979    0.8074   27.4141 C   0  0  0  0  0  0  0  0  0  0  0  0
   -7.8409    1.6716   26.9866 C   0  0  1  0  0  0  0  0  0  0  0  0
   -7.6746    2.8725   27.5573 N   0  0  0  0  0  0  0  0  0  0  0  0
   -9.0407    0.4161   23.8699 O   0  0  0  0  0  0  0  0  0  0  0  0
   -6.0415   -1.3509   26.9355 F   0  0  0  0  0  0  0  0  0  0  0  0
  3  7  1  0
  7  8  1  0
  8  9  1  0
  7 10  2  0
  9 11  1  0
 12 13  1  0
  8 14  1  0
  1 15  1  0
 14 15  1  0
  9 16  2  0
 12 17  1  1
 11 12  1  0
 14 13  1  6
  1  2  2  0
  2  5  1  0
  5  6  2  0
  6  4  1  0
  4  3  2  0
  3  1  1  0
M  END
$$$$
