No_1686-complexes_sdf/6BKW-FPZ/2024-09-17-14-21-01/
     RDKit          3D

 26 28  0  0  0  0  0  0  0  0999 V2000
   -7.2496    3.8871   27.4508 C   0  0  0  0  0  0  0  0  0  0  0  0
   -8.5096    4.0291   27.2770 C   0  0  0  0  0  0  0  0  0  0  0  0
   -9.2677    5.1714   27.5773 C   0  0  0  0  0  0  0  0  0  0  0  0
   -9.2765    2.8248   26.8371 C   0  0  0  0  0  0  0  0  0  0  0  0
  -10.4623    3.0171   26.3237 C   0  0  0  0  0  0  0  0  0  0  0  0
  -10.6079    5.2706   27.2578 C   0  0  0  0  0  0  0  0  0  0  0  0
  -11.2195    4.2201   26.6608 C   0  0  0  0  0  0  0  0  0  0  0  0
   -6.5419    4.9206   27.9386 N   0  0  0  0  0  0  0  0  0  0  0  0
   -6.6414    2.6870   27.5937 N   0  0  0  0  0  0  0  0  0  0  0  0
   -5.2150    2.7923   27.8904 C   0  0  0  0  0  0  0  0  0  0  0  0
   -5.2920    4.3142   28.2134 N   0  0  0  0  0  0  0  0  0  0  0  0
  -12.6622    4.3429   26.2798 C   0  0  0  0  0  0  0  0  0  0  0  0
  -13.2376    4.1631   24.8028 P   0  0  2  0  0  0  0  0  0  0  0  0
  -12.2324    4.5585   23.8682 O   0  0  0  0  0  0  0  0  0  0  0  0
  -14.4741    5.0944   24.6400 O   0  0  0  0  0  0  0  0  0  0  0  0
  -13.6572    2.7371   24.5789 O   0  0  0  0  0  0  0  0  0  0  0  0
  -14.4339    2.1794   23.9563 C   0  0  0  0  0  0  0  0  0  0  0  0
  -14.3629    0.8281   23.9179 C   0  0  0  0  0  0  0  0  0  0  0  0
  -13.7411    0.1648   24.7213 O   0  0  0  0  0  0  0  0  0  0  0  0
  -15.0261    0.0768   22.8427 C   0  0  0  0  0  0  0  0  0  0  0  0
  -14.9219   -1.1947   22.7929 C   0  0  0  0  0  0  0  0  0  0  0  0
  -14.7249   -2.0607   22.1303 C   0  0  0  0  0  0  0  0  0  0  0  0
  -14.7704   -3.5243   22.3038 C   0  0  0  0  0  0  0  0  0  0  0  0
  -15.0222   -3.9176   23.6201 C   0  0  0  0  0  0  0  0  0  0  0  0
  -15.2405   -2.9651   24.5892 C   0  0  0  0  0  0  0  0  0  0  0  0
  -15.2474   -1.6426   24.3020 C   0  0  0  0  0  0  0  0  0  0  0  0
  1  2  1  0
  1  8  1  0
  1  9  2  0
  9 10  1  0
  8 11  1  0
 10 11  2  0
  7 12  1  0
 12 13  1  0
 13 14  2  0
 13 15  1  1
 13 16  1  0
 16 17  1  0
 17 18  1  0
 18 19  1  0
 18 20  1  0
 20 21  1  0
  2  3  2  0
  3  6  1  0
  6  7  2  0
  7  5  1  0
  5  4  2  0
  4  2  1  0
 21 22  2  0
 22 23  1  0
 23 24  2  0
 24 25  1  0
 25 26  2  0
 26 21  1  0
M  END
$$$$
