No_1642-complexes_sdf/6BKW-FPZ/2024-09-17-14-21-01/
     RDKit          3D

 31 34  0  0  0  0  0  0  0  0999 V2000
   -7.9040    3.9820   27.1177 C   0  0  0  0  0  0  0  0  0  0  0  0
   -7.8663    4.8694   27.9238 C   0  0  0  0  0  0  0  0  0  0  0  0
   -9.0491    3.8523   26.2542 C   0  0  0  0  0  0  0  0  0  0  0  0
   -8.7661    5.9491   27.9690 C   0  0  0  0  0  0  0  0  0  0  0  0
   -9.1798    2.6731   25.4786 C   0  0  0  0  0  0  0  0  0  0  0  0
   -9.8964    5.8854   27.1460 C   0  0  0  0  0  0  0  0  0  0  0  0
   -9.9958    4.8034   26.3470 C   0  0  0  0  0  0  0  0  0  0  0  0
  -10.0250    2.6919   24.3447 C   0  0  0  0  0  0  0  0  0  0  0  0
  -10.1429    1.5791   23.5538 C   0  0  0  0  0  0  0  0  0  0  0  0
   -9.2978    0.4343   23.8167 C   0  0  0  0  0  0  0  0  0  0  0  0
   -8.3548    1.5644   25.5647 C   0  0  0  0  0  0  0  0  0  0  0  0
   -8.4241    0.4700   24.8290 C   0  0  0  0  0  0  0  0  0  0  0  0
   -7.5602   -0.6891   25.0740 C   0  0  0  0  0  0  0  0  0  0  0  0
   -6.6908   -0.9378   24.2751 O   0  0  0  0  0  0  0  0  0  0  0  0
   -7.3667   -1.0738   26.3218 O   0  0  0  0  0  0  0  0  0  0  0  0
   -7.8323   -0.7557   27.2712 C   0  0  0  0  0  0  0  0  0  0  0  0
   -8.5092   -1.7899   28.1178 C   0  0  0  0  0  0  0  0  0  0  0  0
   -9.0789   -2.6793   27.5848 C   0  0  0  0  0  0  0  0  0  0  0  0
   -8.9655   -3.2428   26.7270 C   0  0  0  0  0  0  0  0  0  0  0  0
   -9.8628   -4.3074   26.1851 C   0  0  0  0  0  0  0  0  0  0  0  0
  -10.5041   -2.8622   28.1894 C   0  0  0  0  0  0  0  0  0  0  0  0
  -11.4104   -3.7986   27.8028 C   0  0  0  0  0  0  0  0  0  0  0  0
  -11.0351   -4.5302   26.7235 C   0  0  0  0  0  0  0  0  0  0  0  0
  -11.8937   -5.5937   26.1945 C   0  0  1  0  0  0  0  0  0  0  0  0
  -13.2835   -6.1153   26.9337 Cl  0  0  0  0  0  0  0  0  0  0  0  0
  -12.1155   -5.4581   24.6709 C   0  0  0  0  0  0  0  0  0  0  0  0
  -12.7006   -6.4209   24.1578 C   0  0  0  0  0  0  0  0  0  0  0  0
  -12.9536   -6.3210   22.7153 C   0  0  0  0  0  0  0  0  0  0  0  0
  -12.3721   -5.2541   22.0151 C   0  0  0  0  0  0  0  0  0  0  0  0
  -11.6788   -4.2698   22.6877 C   0  0  0  0  0  0  0  0  0  0  0  0
  -11.5233   -4.3328   24.0443 C   0  0  0  0  0  0  0  0  0  0  0  0
  3  5  1  0
 12 13  1  0
 13 14  2  0
 13 15  1  0
 15 16  1  0
 16 17  1  0
 17 18  1  0
 23 24  1  0
 24 25  1  1
 24 26  1  0
 26 27  2  0
 27 28  1  0
 28 29  2  0
 29 30  1  0
 30 31  2  0
 31 26  1  0
  1  2  2  0
  2  4  1  0
  4  6  2  0
  6  7  1  0
  7  3  2  0
  3  1  1  0
  5  8  2  0
  8  9  1  0
  9 10  2  0
 10 12  1  0
 12 11  2  0
 11  5  1  0
 18 19  2  0
 19 20  1  0
 20 23  2  0
 23 22  1  0
 22 21  2  0
 21 18  1  0
M  END
$$$$
