No_1253-complexes_sdf/6BKW-FPZ/2024-09-17-14-21-01/
     RDKit          3D

 15 16  0  0  0  0  0  0  0  0999 V2000
   -7.9040    3.9820   27.1177 C   0  0  0  0  0  0  0  0  0  0  0  0
   -9.0711    4.3164   27.0630 C   0  0  0  0  0  0  0  0  0  0  0  0
   -9.8698    3.9665   25.9495 C   0  0  0  0  0  0  0  0  0  0  0  0
   -7.0332    4.5030   28.2025 C   0  0  2  0  0  0  0  0  0  0  0  0
   -9.4357    2.9501   25.1393 C   0  0  0  0  0  0  0  0  0  0  0  0
   -8.2567    2.3218   25.4797 C   0  0  0  0  0  0  0  0  0  0  0  0
   -7.5105    2.7966   26.5752 C   0  0  0  0  0  0  0  0  0  0  0  0
  -10.3743    2.6618   24.0569 C   0  0  0  0  0  0  0  0  0  0  0  0
  -10.4296    1.5875   23.4434 C   0  0  0  0  0  0  0  0  0  0  0  0
  -11.2083    1.3097   22.2414 C   0  0  0  0  0  0  0  0  0  0  0  0
  -11.9933    2.3688   21.7968 C   0  0  0  0  0  0  0  0  0  0  0  0
  -11.1652    3.7354   23.3965 C   0  0  0  0  0  0  0  0  0  0  0  0
  -11.9181    3.6039   22.3775 C   0  0  0  0  0  0  0  0  0  0  0  0
   -7.4555    5.6126   28.8543 N   0  0  0  0  0  0  0  0  0  0  0  0
   -5.7644    4.4361   27.9536 F   0  0  0  0  0  0  0  0  0  0  0  0
  1  4  1  0
  5  8  1  0
  4 14  1  6
  4 15  1  0
  8  9  2  0
  9 10  1  0
 10 11  2  0
 11 13  1  0
 13 12  2  0
 12  8  1  0
  1  2  2  0
  2  3  1  0
  3  5  2  0
  5  6  1  0
  6  7  2  0
  7  1  1  0
M  END
$$$$
