No_1806-complexes_sdf/6BKW-FPZ/2024-09-17-14-21-01/
     RDKit          3D

 28 31  0  0  0  0  0  0  0  0999 V2000
   -7.2496    3.8871   27.4508 C   0  0  0  0  0  0  0  0  0  0  0  0
   -7.9379    4.9063   27.8518 C   0  0  0  0  0  0  0  0  0  0  0  0
   -9.3376    4.8647   27.7795 C   0  0  0  0  0  0  0  0  0  0  0  0
   -7.8544    2.6294   27.0414 C   0  0  0  0  0  0  0  0  0  0  0  0
   -9.2665    2.6175   27.0340 C   0  0  0  0  0  0  0  0  0  0  0  0
   -9.9111    1.3868   26.6335 C   0  0  0  0  0  0  0  0  0  0  0  0
   -9.9845    3.7153   27.4660 C   0  0  0  0  0  0  0  0  0  0  0  0
  -10.8907    1.3640   26.0163 C   0  0  0  0  0  0  0  0  0  0  0  0
   -9.2884    0.1458   27.1734 C   0  0  0  0  0  0  0  0  0  0  0  0
   -8.0641   -0.0442   27.6439 C   0  0  0  0  0  0  0  0  0  0  0  0
  -11.5469    0.3132   25.6599 C   0  0  0  0  0  0  0  0  0  0  0  0
  -11.0819   -0.9514   26.1212 C   0  0  0  0  0  0  0  0  0  0  0  0
   -9.9913   -1.0311   26.8718 C   0  0  0  0  0  0  0  0  0  0  0  0
   -7.3344    6.0924   28.1526 O   0  0  0  0  0  0  0  0  0  0  0  0
   -7.6642   -1.1353   28.3868 C   0  0  0  0  0  0  0  0  0  0  0  0
   -8.5334   -2.2740   28.2425 C   0  0  0  0  0  0  0  0  0  0  0  0
   -9.6610   -2.2754   27.4944 C   0  0  0  0  0  0  0  0  0  0  0  0
  -10.5153   -3.4011   27.4997 C   0  0  0  0  0  0  0  0  0  0  0  0
  -10.1476   -4.5252   28.0344 C   0  0  0  0  0  0  0  0  0  0  0  0
   -8.9190   -4.5351   28.7873 C   0  0  0  0  0  0  0  0  0  0  0  0
   -8.0777   -3.4495   28.9377 C   0  0  0  0  0  0  0  0  0  0  0  0
  -11.1953    3.4660   27.9293 O   0  0  0  0  0  0  0  0  0  0  0  0
  -11.5510    3.0678   29.1507 C   0  0  0  0  0  0  0  0  0  0  0  0
  -12.6974    2.1895   29.2092 C   0  0  0  0  0  0  0  0  0  0  0  0
  -12.8452    1.4373   28.4933 N   0  0  0  0  0  0  0  0  0  0  0  0
  -13.2632    1.0857   27.5732 C   0  0  0  0  0  0  0  0  0  0  0  0
  -14.2572    1.9830   27.0805 C   0  0  0  0  0  0  0  0  0  0  0  0
  -14.8191    1.7504   25.7994 C   0  0  0  0  0  0  0  0  0  0  0  0
  5  6  1  0
  2 14  1  0
  7 22  1  0
 22 23  1  0
 23 24  1  0
 24 25  2  3
 25 26  1  0
 26 27  1  0
 27 28  2  0
  6  8  2  0
  8 11  1  0
 11 12  2  0
 12 13  1  0
  9  6  1  0
  1  2  2  0
  2  3  1  0
  3  7  2  0
  7  5  1  0
  5  4  2  0
  4  1  1  0
  9 10  2  0
 10 15  1  0
 15 16  2  0
 17 13  2  0
 13  9  1  0
 16 17  1  0
 17 18  1  0
 18 19  2  0
 19 20  1  0
 20 21  2  0
 21 16  1  0
M  END
$$$$
