No_1832-complexes_sdf/6BKW-FPZ/2024-09-17-14-21-01/
     RDKit          3D

 28 32  0  0  0  0  0  0  0  0999 V2000
   -7.9040    3.9820   27.1177 C   0  0  0  0  0  0  0  0  0  0  0  0
   -7.8663    4.8694   27.9238 C   0  0  0  0  0  0  0  0  0  0  0  0
   -9.0491    3.8523   26.2542 C   0  0  0  0  0  0  0  0  0  0  0  0
   -8.7661    5.9491   27.9690 C   0  0  0  0  0  0  0  0  0  0  0  0
   -9.9279    4.8544   26.1938 C   0  0  0  0  0  0  0  0  0  0  0  0
   -9.8044    5.9413   27.0782 C   0  0  0  0  0  0  0  0  0  0  0  0
   -9.0689    2.7042   25.3035 C   0  0  0  0  0  0  0  0  0  0  0  0
  -10.0575    2.7179   24.3171 C   0  0  0  0  0  0  0  0  0  0  0  0
  -10.9354    3.8654   24.2501 C   0  0  0  0  0  0  0  0  0  0  0  0
  -10.9001    4.8196   25.1493 C   0  0  0  0  0  0  0  0  0  0  0  0
  -11.9535    3.7909   23.1771 C   0  0  0  0  0  0  0  0  0  0  0  0
  -13.1579    3.4209   23.3239 C   0  0  0  0  0  0  0  0  0  0  0  0
  -14.1015    3.5498   22.3718 C   0  0  0  0  0  0  0  0  0  0  0  0
  -13.6963    3.9720   21.0725 C   0  0  0  0  0  0  0  0  0  0  0  0
  -11.5404    4.2587   21.8988 C   0  0  0  0  0  0  0  0  0  0  0  0
  -12.3743    4.3400   20.8691 C   0  0  0  0  0  0  0  0  0  0  0  0
   -6.9659    2.9288   27.2250 N   0  0  0  0  0  0  0  0  0  0  0  0
   -6.2309    2.1731   27.6477 C   0  0  0  0  0  0  0  0  0  0  0  0
   -6.3508    0.7388   27.6327 C   0  0  0  0  0  0  0  0  0  0  0  0
   -7.4017    0.0226   27.2480 C   0  0  0  0  0  0  0  0  0  0  0  0
   -8.5154    0.7658   26.7770 C   0  0  2  0  0  0  0  0  0  0  0  0
   -9.6200   -0.1487   26.9194 C   0  0  0  0  0  0  0  0  0  0  0  0
   -7.6352    1.7079   26.3305 C   0  0  1  0  0  0  0  0  0  0  0  0
   -7.7776    2.0056   25.1941 O   0  0  0  0  0  0  0  0  0  0  0  0
   -9.8920   -0.7997   27.8974 C   0  0  0  0  0  0  0  0  0  0  0  0
  -11.1819   -1.4179   28.0605 C   0  0  0  0  0  0  0  0  0  0  0  0
  -12.1329   -1.1842   27.0817 C   0  0  0  0  0  0  0  0  0  0  0  0
  -11.8552   -0.4082   26.0075 C   0  0  0  0  0  0  0  0  0  0  0  0
  9 11  1  0
  1 17  1  0
 17 18  1  0
 18 19  1  0
 20 21  1  0
 17 23  1  0
 21 23  1  0
  7 24  1  0
 23 24  1  6
 22 25  1  0
 25 26  2  3
 26 27  1  0
 27 28  2  0
 21 22  1  6
 19 20  1  0
  5 10  2  0
 10  9  1  0
  9  8  2  0
  8  7  1  0
  7  3  2  0
  1  2  2  0
  2  4  1  0
  4  6  2  0
  6  5  1  0
  5  3  1  0
  3  1  1  0
 11 12  2  0
 12 13  1  0
 13 14  2  0
 14 16  1  0
 16 15  2  0
 15 11  1  0
M  END
$$$$
