No_102-complexes_sdf/6BKW-FPZ/2024-09-17-14-21-01/
     RDKit          3D

 23 26  0  0  0  0  0  0  0  0999 V2000
   -7.9040    3.9820   27.1177 C   0  0  0  0  0  0  0  0  0  0  0  0
   -8.2057    2.8231   26.8733 C   0  0  0  0  0  0  0  0  0  0  0  0
   -8.7695    5.0740   26.7916 C   0  0  0  0  0  0  0  0  0  0  0  0
   -8.4337    6.4678   27.0913 C   0  0  0  0  0  0  0  0  0  0  0  0
   -9.1945    2.4408   26.4350 C   0  0  0  0  0  0  0  0  0  0  0  0
  -10.2047    3.3522   26.0527 C   0  0  0  0  0  0  0  0  0  0  0  0
   -9.9687    4.6754   26.2340 C   0  0  0  0  0  0  0  0  0  0  0  0
   -7.8797    6.8883   28.1453 N   0  0  0  0  0  0  0  0  0  0  0  0
   -8.5709    7.3255   26.1184 O   0  0  0  0  0  0  0  0  0  0  0  0
   -7.3076    1.5958   27.3120 C   0  0  0  0  0  0  0  0  0  0  0  0
   -7.8578    0.3730   27.1174 C   0  0  0  0  0  0  0  0  0  0  0  0
   -9.4446    1.0064   26.3197 C   0  0  1  0  0  0  0  0  0  0  0  0
   -5.9578    1.6724   27.8822 C   0  0  0  0  0  0  0  0  0  0  0  0
   -5.2837    0.4699   28.2509 C   0  0  0  0  0  0  0  0  0  0  0  0
   -6.0693   -0.7520   28.0610 C   0  0  0  0  0  0  0  0  0  0  0  0
   -7.3780   -0.7263   27.4294 C   0  0  0  0  0  0  0  0  0  0  0  0
   -4.0000    0.4866   28.8281 C   0  0  0  0  0  0  0  0  0  0  0  0
   -3.1804   -0.6602   28.6650 C   0  0  0  0  0  0  0  0  0  0  0  0
   -3.5935   -1.4992   28.1530 C   0  0  0  0  0  0  0  0  0  0  0  0
   -5.0454   -1.7883   27.8368 C   0  0  0  0  0  0  0  0  0  0  0  0
  -10.3316    0.0523   25.9539 C   0  0  0  0  0  0  0  0  0  0  0  0
  -10.6335   -0.9605   26.8054 C   0  0  0  0  0  0  0  0  0  0  0  0
  -11.6921   -1.8909   26.4680 C   0  0  0  0  0  0  0  0  0  0  0  0
  3  4  1  0
  4  8  1  0
  4  9  2  0
  2 10  1  0
  5 12  1  0
 11 12  1  0
 12 21  1  1
 21 22  2  3
 22 23  1  0
  1  2  2  0
  2  5  1  0
  5  6  2  0
  6  7  1  0
  7  3  2  0
  3  1  1  0
 15 20  1  0
 20 19  2  0
 19 18  1  0
 18 17  2  0
 17 14  1  0
 10 11  2  0
 11 16  1  0
 16 15  2  0
 15 14  1  0
 14 13  2  0
 13 10  1  0
M  END
$$$$
