No_1123-complexes_sdf/6BKW-FPZ/2024-09-17-14-21-01/
     RDKit          3D

 30 32  0  0  0  0  0  0  0  0999 V2000
   -7.9040    3.9820   27.1177 C   0  0  0  0  0  0  0  0  0  0  0  0
   -8.2057    2.8231   26.8733 C   0  0  0  0  0  0  0  0  0  0  0  0
   -9.2962    2.4021   26.1155 C   0  0  0  0  0  0  0  0  0  0  0  0
   -8.7358    5.0662   26.5917 C   0  0  0  0  0  0  0  0  0  0  0  0
   -9.7618    4.7023   25.7546 C   0  0  0  0  0  0  0  0  0  0  0  0
  -10.0066    3.4105   25.4922 C   0  0  0  0  0  0  0  0  0  0  0  0
   -8.3943    6.4760   26.8801 C   0  0  0  0  0  0  0  0  0  0  0  0
   -8.0574    7.5061   27.0291 N   0  0  0  0  0  0  0  0  0  0  0  0
   -7.2018    1.5105   27.6099 Cl  0  0  0  0  0  0  0  0  0  0  0  0
  -11.1113    3.0440   24.5913 C   0  0  0  0  0  0  0  0  0  0  0  0
  -11.3819    3.7558   23.6089 N   0  0  0  0  0  0  0  0  0  0  0  0
  -12.3815    3.7777   22.7694 C   0  0  0  0  0  0  0  0  0  0  0  0
  -11.7430    1.9750   24.7246 O   0  0  0  0  0  0  0  0  0  0  0  0
  -13.4940    4.2459   23.1235 C   0  0  0  0  0  0  0  0  0  0  0  0
  -14.6914    4.2803   22.2979 C   0  0  0  0  0  0  0  0  0  0  0  0
  -14.5067    3.8867   20.9597 C   0  0  0  0  0  0  0  0  0  0  0  0
  -13.2405    3.4637   20.5322 C   0  0  0  0  0  0  0  0  0  0  0  0
  -12.1483    3.4572   21.3819 C   0  0  0  0  0  0  0  0  0  0  0  0
  -15.5083    3.9282   20.1105 F   0  0  0  0  0  0  0  0  0  0  0  0
   -6.8913    4.4080   27.9366 F   0  0  0  0  0  0  0  0  0  0  0  0
  -10.8291    3.0494   20.9301 C   0  0  0  0  0  0  0  0  0  0  0  0
   -9.9650    2.0563   21.4061 C   0  0  0  0  0  0  0  0  0  0  0  0
  -10.4958    1.0716   22.2477 C   0  0  0  0  0  0  0  0  0  0  0  0
  -11.2108    0.0300   21.6708 C   0  0  0  0  0  0  0  0  0  0  0  0
  -11.8884   -0.8698   22.4514 C   0  0  0  0  0  0  0  0  0  0  0  0
  -12.9701   -1.4719   21.9556 C   0  0  0  0  0  0  0  0  0  0  0  0
  -13.2278   -1.4420   20.5374 C   0  0  0  0  0  0  0  0  0  0  0  0
  -12.5038   -0.5731   19.7500 C   0  0  0  0  0  0  0  0  0  0  0  0
  -11.5230    0.2254   20.3563 C   0  0  0  0  0  0  0  0  0  0  0  0
  -10.3740    3.8246   19.7321 C   0  0  0  0  0  0  0  0  0  0  0  0
  4  7  1  0
  7  8  3  0
  2  9  1  0
  6 10  1  0
 10 11  1  0
 10 13  2  0
 16 19  1  0
  1 20  1  0
 18 21  1  0
 21 22  2  3
 22 23  1  0
 23 24  1  0
 21 30  1  0
 11 12  1  0
 12 14  2  0
 14 15  1  0
 15 16  2  0
 16 17  1  0
 17 18  2  0
 18 12  1  0
 24 25  2  0
 25 26  1  0
 26 27  2  0
 27 28  1  0
 28 29  2  0
 29 24  1  0
  1  2  2  0
  2  3  1  0
  3  6  2  0
  6  5  1  0
  5  4  2  0
  4  1  1  0
M  END
$$$$
