No_1330-complexes_sdf/6BKW-FPZ/2024-09-17-14-21-01/
     RDKit          3D

 21 22  0  0  0  0  0  0  0  0999 V2000
   -7.9040    3.9820   27.1177 C   0  0  0  0  0  0  0  0  0  0  0  0
   -8.2057    2.8231   26.8733 C   0  0  0  0  0  0  0  0  0  0  0  0
   -8.7695    5.0740   26.7916 C   0  0  0  0  0  0  0  0  0  0  0  0
   -9.9618    4.7598   26.1630 C   0  0  0  0  0  0  0  0  0  0  0  0
   -9.4200    2.4524   26.2849 C   0  0  0  0  0  0  0  0  0  0  0  0
  -10.2590    3.4815   25.9250 C   0  0  0  0  0  0  0  0  0  0  0  0
   -8.3840    6.4693   27.0829 C   0  0  0  0  0  0  0  0  0  0  0  0
   -8.3637    6.7809   28.2310 F   0  0  0  0  0  0  0  0  0  0  0  0
   -9.3076    7.3337   26.4322 F   0  0  0  0  0  0  0  0  0  0  0  0
   -7.1477    6.7467   26.5861 F   0  0  0  0  0  0  0  0  0  0  0  0
   -7.0344    1.3858   27.4507 Br  0  0  0  0  0  0  0  0  0  0  0  0
  -11.5244    3.2157   25.1982 C   0  0  0  0  0  0  0  0  0  0  0  0
  -11.4182    2.7521   23.9598 C   0  0  0  0  0  0  0  0  0  0  0  0
  -12.3734    2.7340   23.1207 C   0  0  0  0  0  0  0  0  0  0  0  0
  -13.6940    3.1877   23.5496 C   0  0  0  0  0  0  0  0  0  0  0  0
  -12.7315    3.8217   25.6225 C   0  0  0  0  0  0  0  0  0  0  0  0
  -13.8129    3.8060   24.8188 C   0  0  0  0  0  0  0  0  0  0  0  0
  -15.1032    4.3421   25.2716 C   0  0  0  0  0  0  0  0  0  0  0  0
  -15.2705    4.4146   26.6525 C   0  0  0  0  0  0  0  0  0  0  0  0
  -16.3790    4.9638   27.2230 C   0  0  0  0  0  0  0  0  0  0  0  0
  -17.3792    5.4478   26.3837 C   0  0  0  0  0  0  0  0  0  0  0  0
  3  7  1  0
  7  8  1  0
  7  9  1  0
  7 10  1  0
  2 11  1  0
  6 12  1  0
 17 18  1  0
 18 19  2  3
 19 20  1  0
 20 21  2  0
 12 13  2  0
 13 14  1  0
 14 15  2  0
 15 17  1  0
 17 16  2  0
 16 12  1  0
  1  2  2  0
  2  5  1  0
  5  6  2  0
  6  4  1  0
  4  3  2  0
  3  1  1  0
M  END
$$$$
