No_1503-complexes_sdf/6BKW-FPZ/2024-09-17-14-21-01/
     RDKit          3D

 21 22  0  0  0  0  0  0  0  0999 V2000
   -7.9040    3.9820   27.1177 C   0  0  0  0  0  0  0  0  0  0  0  0
   -7.8663    4.8694   27.9238 C   0  0  0  0  0  0  0  0  0  0  0  0
   -9.0491    3.8523   26.2542 C   0  0  0  0  0  0  0  0  0  0  0  0
   -8.7661    5.9491   27.9690 C   0  0  0  0  0  0  0  0  0  0  0  0
   -9.9295    4.8502   26.2323 C   0  0  0  0  0  0  0  0  0  0  0  0
   -9.8077    5.9288   27.0933 C   0  0  0  0  0  0  0  0  0  0  0  0
   -6.8002    2.6256   27.2024 Cl  0  0  0  0  0  0  0  0  0  0  0  0
   -8.9698    2.4457   25.1479 Cl  0  0  0  0  0  0  0  0  0  0  0  0
  -10.8758    4.8161   25.3015 F   0  0  0  0  0  0  0  0  0  0  0  0
   -6.7887    5.0270   28.8037 O   0  0  0  0  0  0  0  0  0  0  0  0
   -5.5620    4.8982   28.2655 C   0  0  0  0  0  0  0  0  0  0  0  0
   -5.1459    3.7278   27.8254 O   0  0  0  0  0  0  0  0  0  0  0  0
   -5.3034    2.5627   27.7641 C   0  0  2  0  0  0  0  0  0  0  0  0
   -4.7386    1.4039   28.0201 C   0  0  2  0  0  0  0  0  0  0  0  0
   -4.3297    2.4015   28.0025 Br  0  0  0  0  0  0  0  0  0  0  0  0
   -3.9608    0.5426   27.4802 O   0  0  0  0  0  0  0  0  0  0  0  0
   -3.0783   -0.2065   27.8848 C   0  0  0  0  0  0  0  0  0  0  0  0
   -3.3199   -1.5410   28.0538 C   0  0  0  0  0  0  0  0  0  0  0  0
   -4.4261   -2.0088   27.7228 C   0  0  0  0  0  0  0  0  0  0  0  0
   -5.4856   -1.3024   27.6150 C   0  0  0  0  0  0  0  0  0  0  0  0
   -6.0716    0.1106   27.9063 C   0  0  0  0  0  0  0  0  0  0  0  0
  1  7  1  0
  3  8  1  0
  5  9  1  0
  2 10  1  0
 10 11  1  0
 11 12  1  0
 12 13  1  0
 13 14  1  0
 13 15  1  6
 14 16  1  0
 16 17  1  0
 17 18  1  0
 18 19  1  0
 19 20  2  0
 14 21  1  6
 20 21  1  0
  1  2  2  0
  2  4  1  0
  4  6  2  0
  6  5  1  0
  5  3  2  0
  3  1  1  0
M  END
$$$$
