No_141-complexes_sdf/6BKW-FPZ/2024-09-17-14-21-01/
     RDKit          3D

 15 17  0  0  0  0  0  0  0  0999 V2000
   -7.9040    3.9820   27.1177 C   0  0  0  0  0  0  0  0  0  0  0  0
   -9.0711    4.3164   27.0630 C   0  0  0  0  0  0  0  0  0  0  0  0
   -9.5294    5.4517   27.7215 C   0  0  0  0  0  0  0  0  0  0  0  0
   -6.9328    4.7309   27.8881 C   0  0  0  0  0  0  0  0  0  0  0  0
   -7.3377    5.8421   28.5537 C   0  0  0  0  0  0  0  0  0  0  0  0
   -8.6411    6.2609   28.3972 C   0  0  0  0  0  0  0  0  0  0  0  0
  -10.0467    3.4917   26.2630 C   0  0  0  0  0  0  0  0  0  0  0  0
   -9.6004    2.6685   25.4425 N   0  0  0  0  0  0  0  0  0  0  0  0
  -10.1784    2.2284   24.2886 C   0  0  0  0  0  0  0  0  0  0  0  0
   -9.6003    1.2028   23.5981 C   0  0  0  0  0  0  0  0  0  0  0  0
   -8.4934    0.5117   24.1333 C   0  0  0  0  0  0  0  0  0  0  0  0
   -7.9578    0.8936   25.3379 C   0  0  0  0  0  0  0  0  0  0  0  0
   -8.4908    1.9155   26.0311 C   0  0  1  0  0  0  0  0  0  0  0  0
   -7.4988    2.7156   26.5928 N   0  0  0  0  0  0  0  0  0  0  0  0
  -11.2522    3.5225   26.5349 O   0  0  0  0  0  0  0  0  0  0  0  0
  2  7  1  0
  7  8  1  0
  8  9  1  0
 10 11  1  0
  8 13  1  0
 13 12  1  6
  1 14  1  0
 13 14  1  0
  7 15  2  0
  9 10  1  0
 11 12  1  0
  1  2  1  0
  2  3  2  0
  3  6  1  0
  6  5  2  0
  5  4  1  0
  4  1  2  0
M  END
$$$$
