No_1989-complexes_sdf/6BKW-FPZ/2024-09-17-14-21-01/
     RDKit          3D

 28 33  0  0  0  0  0  0  0  0999 V2000
   -7.9040    3.9820   27.1177 C   0  0  0  0  0  0  0  0  0  0  0  0
   -9.0711    4.3164   27.0630 C   0  0  0  0  0  0  0  0  0  0  0  0
   -9.5294    5.4517   27.7215 C   0  0  0  0  0  0  0  0  0  0  0  0
   -7.4336    2.7132   26.5681 C   0  0  0  0  0  0  0  0  0  0  0  0
   -8.3353    1.8569   26.0442 C   0  0  0  0  0  0  0  0  0  0  0  0
   -9.6477    2.2853   25.9146 C   0  0  0  0  0  0  0  0  0  0  0  0
  -10.0346    3.4497   26.4483 C   0  0  0  0  0  0  0  0  0  0  0  0
   -7.6689    0.6304   25.5774 C   0  0  0  0  0  0  0  0  0  0  0  0
   -8.0241    0.2096   24.4490 N   0  0  0  0  0  0  0  0  0  0  0  0
   -7.3520   -0.7646   23.7751 C   0  0  0  0  0  0  0  0  0  0  0  0
   -7.5999   -1.0367   22.3936 C   0  0  0  0  0  0  0  0  0  0  0  0
   -8.7335   -0.3338   21.9311 C   0  0  0  0  0  0  0  0  0  0  0  0
   -9.3934    0.6498   22.4894 C   0  0  2  0  0  0  0  0  0  0  0  0
   -8.9896    0.9723   23.8336 C   0  0  1  0  0  0  0  0  0  0  0  0
   -9.7371    1.9095   24.4983 N   0  0  0  0  0  0  0  0  0  0  0  0
  -10.8321    2.4003   23.6314 C   0  0  0  0  0  0  0  0  0  0  0  0
  -11.7224    3.1546   24.1140 C   0  0  0  0  0  0  0  0  0  0  0  0
  -10.8273    1.8068   22.3757 C   0  0  1  0  0  0  0  0  0  0  0  0
   -6.9120    4.7258   27.8610 N   0  0  0  0  0  0  0  0  0  0  0  0
   -7.2711    5.9089   28.4506 C   0  0  0  0  0  0  0  0  0  0  0  0
   -8.5535    6.3525   28.2980 C   0  0  0  0  0  0  0  0  0  0  0  0
  -11.4249    1.8739   21.2187 C   0  0  0  0  0  0  0  0  0  0  0  0
  -11.6016    2.8272   20.5110 C   0  0  0  0  0  0  0  0  0  0  0  0
  -12.0880    0.6358   20.7233 C   0  0  0  0  0  0  0  0  0  0  0  0
  -12.6446    0.5449   19.4869 C   0  0  0  0  0  0  0  0  0  0  0  0
  -10.8556    4.2122   20.9273 C   0  0  0  0  0  0  0  0  0  0  0  0
  -12.7763    1.7625   18.7823 C   0  0  0  0  0  0  0  0  0  0  0  0
  -12.2290    2.9850   19.1932 C   0  0  0  0  0  0  0  0  0  0  0  0
  5  8  1  0
  8  9  1  0
  9 10  1  0
 11 12  1  0
 14  9  1  1
 13 14  1  0
  6 15  1  0
 14 15  1  0
 15 16  1  0
 16 17  2  0
 13 18  1  0
 16 18  1  0
 18 22  1  6
 23 26  1  0
 10 11  1  0
 13 12  1  1
  2  7  1  0
  7  6  2  0
  6  5  1  0
  5  4  2  0
  4  1  1  0
  1  2  1  0
  2  3  2  0
  3 21  1  0
 21 20  2  0
 20 19  1  0
 19  1  2  0
 22 23  2  0
 23 28  1  0
 28 27  2  0
 27 25  1  0
 25 24  2  0
 24 22  1  0
M  END
$$$$
