No_134-complexes_sdf/6BKW-FPZ/2024-09-17-14-21-01/
     RDKit          3D

 12 12  0  0  0  0  0  0  0  0999 V2000
   -7.9040    3.9820   27.1177 C   0  0  0  0  0  0  0  0  0  0  0  0
   -8.2057    2.8231   26.8733 C   0  0  0  0  0  0  0  0  0  0  0  0
   -8.7695    5.0740   26.7916 C   0  0  0  0  0  0  0  0  0  0  0  0
   -9.9618    4.7598   26.1630 C   0  0  0  0  0  0  0  0  0  0  0  0
   -9.4200    2.4524   26.2849 C   0  0  0  0  0  0  0  0  0  0  0  0
  -10.2590    3.4815   25.9250 C   0  0  0  0  0  0  0  0  0  0  0  0
   -8.1804    6.4174   27.1235 C   0  0  0  0  0  0  0  0  0  0  0  0
   -8.9656    7.5322   26.8904 N   0  0  0  0  0  0  0  0  0  0  0  0
   -6.9829    6.5077   27.4715 O   0  0  0  0  0  0  0  0  0  0  0  0
   -7.5100    1.5073   27.2184 C   0  0  0  0  0  0  0  0  0  0  0  0
   -7.9781    0.3209   27.0325 C   0  0  0  0  0  0  0  0  0  0  0  0
   -9.2148    0.1338   26.4746 C   0  0  0  0  0  0  0  0  0  0  0  0
  3  7  1  0
  7  8  1  0
  7  9  2  0
  2 10  1  0
 10 11  2  3
 11 12  1  0
  1  2  2  0
  2  5  1  0
  5  6  2  0
  6  4  1  0
  4  3  2  0
  3  1  1  0
M  END
$$$$
