No_1545-complexes_sdf/6BKW-FPZ/2024-09-17-14-21-01/
     RDKit          3D

 40 44  0  0  0  0  0  0  0  0999 V2000
   -7.9040    3.9820   27.1177 C   0  0  0  0  0  0  0  0  0  0  0  0
   -9.0711    4.3164   27.0630 C   0  0  0  0  0  0  0  0  0  0  0  0
   -9.5294    5.4517   27.7215 C   0  0  0  0  0  0  0  0  0  0  0  0
   -6.9328    4.7309   27.8881 C   0  0  0  0  0  0  0  0  0  0  0  0
   -7.3666    5.8455   28.5488 C   0  0  0  0  0  0  0  0  0  0  0  0
   -8.6669    6.2428   28.4199 C   0  0  0  0  0  0  0  0  0  0  0  0
  -10.0479    3.5083   26.2510 C   0  0  0  0  0  0  0  0  0  0  0  0
   -9.7487    3.3855   24.9113 C   0  0  0  0  0  0  0  0  0  0  0  0
  -10.4599    2.6104   24.0012 C   0  0  0  0  0  0  0  0  0  0  0  0
  -10.0173    2.5006   22.6552 C   0  0  2  0  0  0  0  0  0  0  0  0
  -11.1814    2.7053   26.4107 C   0  0  0  0  0  0  0  0  0  0  0  0
  -11.9067    1.9679   25.7271 C   0  0  0  0  0  0  0  0  0  0  0  0
  -11.5282    1.8952   24.4075 C   0  0  0  0  0  0  0  0  0  0  0  0
  -10.1856    3.5511   21.7739 C   0  0  0  0  0  0  0  0  0  0  0  0
  -10.6553    4.7820   22.3060 C   0  0  0  0  0  0  0  0  0  0  0  0
   -9.4588    1.2923   22.2057 C   0  0  0  0  0  0  0  0  0  0  0  0
   -9.9393    0.6059   21.1085 C   0  0  0  0  0  0  0  0  0  0  0  0
   -9.4840   -0.7064   20.8859 C   0  0  0  0  0  0  0  0  0  0  0  0
   -8.5273    0.5889   22.9800 C   0  0  0  0  0  0  0  0  0  0  0  0
   -7.9932   -0.6384   22.7949 C   0  0  0  0  0  0  0  0  0  0  0  0
   -8.5093   -1.2742   21.6390 C   0  0  0  0  0  0  0  0  0  0  0  0
  -10.5226    3.3726   20.4259 C   0  0  0  0  0  0  0  0  0  0  0  0
   -6.9828   -1.2484   23.6035 C   0  0  2  0  0  0  0  0  0  0  0  0
   -7.3528   -1.7951   24.8610 C   0  0  0  0  0  0  0  0  0  0  0  0
   -7.2575   -1.4121   25.8376 C   0  0  0  0  0  0  0  0  0  0  0  0
   -6.6991   -0.0061   26.1610 C   0  0  0  0  0  0  0  0  0  0  0  0
   -6.3729    0.3886   27.5693 C   0  0  0  0  0  0  0  0  0  0  0  0
   -5.0999   -0.0525   27.9968 C   0  0  0  0  0  0  0  0  0  0  0  0
   -4.6987    0.2947   29.0180 C   0  0  0  0  0  0  0  0  0  0  0  0
   -3.4793   -0.2296   29.5390 C   0  0  0  0  0  0  0  0  0  0  0  0
   -2.6528   -0.9593   28.8186 C   0  0  0  0  0  0  0  0  0  0  0  0
   -4.3017   -0.9260   27.2176 C   0  0  0  0  0  0  0  0  0  0  0  0
   -3.0645   -1.3112   27.5928 C   0  0  0  0  0  0  0  0  0  0  0  0
   -7.7900   -3.2289   24.5888 C   0  0  0  0  0  0  0  0  0  0  0  0
   -7.7787   -2.0451   27.1086 C   0  0  0  0  0  0  0  0  0  0  0  0
   -7.9406   -3.3445   27.0956 C   0  0  0  0  0  0  0  0  0  0  0  0
   -8.0010   -3.8249   25.4627 C   0  0  0  0  0  0  0  0  0  0  0  0
   -5.5951   -1.1374   23.1397 C   0  0  0  0  0  0  0  0  0  0  0  0
  -12.2582    1.0198   23.4921 C   0  0  0  0  0  0  0  0  0  0  0  0
  -13.5672    1.4902   23.1209 C   0  0  0  0  0  0  0  0  0  0  0  0
  2  7  1  0
  9 10  1  0
 10 14  1  6
 14 15  2  0
 10 16  1  0
 14 22  1  0
 20 23  1  0
 23 24  1  0
 25 26  1  0
 26 27  1  0
 27 28  1  0
 23 38  1  1
 13 39  1  0
 39 40  1  0
 28 29  2  0
 29 30  1  0
 30 31  2  0
 31 33  1  0
 33 32  2  0
 32 28  1  0
  1  2  2  0
  2  3  1  0
  3  6  2  0
  6  5  1  0
  5  4  2  0
  4  1  1  0
 24 25  2  0
 25 35  1  0
 35 36  2  0
 36 37  1  0
 37 34  2  0
 34 24  1  0
 16 17  2  0
 17 18  1  0
 18 21  2  0
 21 20  1  0
 20 19  2  0
 19 16  1  0
  7  8  2  0
  8  9  1  0
  9 13  2  0
 13 12  1  0
 12 11  2  0
 11  7  1  0
M  END
$$$$
