No_1542-complexes_sdf/6BKW-FPZ/2024-09-17-14-21-01/
     RDKit          3D

 18 19  0  0  0  0  0  0  0  0999 V2000
   -7.9040    3.9820   27.1177 C   0  0  0  0  0  0  0  0  0  0  0  0
   -9.0711    4.3164   27.0630 C   0  0  0  0  0  0  0  0  0  0  0  0
  -10.0395    3.8218   27.1938 C   0  0  0  0  0  0  0  0  0  0  0  0
   -7.6424    2.5858   27.3610 C   0  0  0  0  0  0  0  0  0  0  0  0
   -8.7741    1.7889   27.4566 C   0  0  0  0  0  0  0  0  0  0  0  0
  -10.0155    2.3581   27.4300 C   0  0  0  0  0  0  0  0  0  0  0  0
   -9.1463    5.9504   26.8742 C   0  0  0  0  0  0  0  0  0  0  0  0
   -9.2055    6.3507   25.5991 F   0  0  0  0  0  0  0  0  0  0  0  0
   -7.9896    6.6014   27.3747 F   0  0  0  0  0  0  0  0  0  0  0  0
  -10.0293    6.5589   27.6795 F   0  0  0  0  0  0  0  0  0  0  0  0
   -6.3173    1.9787   27.3516 C   0  0  0  0  0  0  0  0  0  0  0  0
   -5.8262    1.2873   28.3380 C   0  0  0  0  0  0  0  0  0  0  0  0
   -4.4110    0.8868   28.2894 C   0  0  0  0  0  0  0  0  0  0  0  0
   -3.8581    0.0982   29.3429 C   0  0  0  0  0  0  0  0  0  0  0  0
   -2.4826   -0.1359   29.3667 C   0  0  0  0  0  0  0  0  0  0  0  0
   -1.7549    0.0986   28.1247 C   0  0  0  0  0  0  0  0  0  0  0  0
   -3.4993    1.0102   27.2343 C   0  0  0  0  0  0  0  0  0  0  0  0
   -2.3057    0.6732   27.1607 N   0  0  0  0  0  0  0  0  0  0  0  0
  2  7  1  0
  7  8  1  0
  7  9  1  0
  7 10  1  0
  4 11  1  0
 11 12  1  0
 12 13  1  0
  1  2  2  0
  2  3  1  0
  3  6  2  0
  6  5  1  0
  5  4  2  0
  4  1  1  0
 13 14  2  0
 14 15  1  0
 15 16  2  0
 16 18  1  0
 18 17  2  0
 17 13  1  0
M  END
$$$$
