No_1679-complexes_sdf/6BKW-FPZ/2024-09-17-14-21-01/
     RDKit          3D

 13 13  0  0  0  0  0  0  0  0999 V2000
   -7.2496    3.8871   27.4508 C   0  0  0  0  0  0  0  0  0  0  0  0
   -8.5096    4.0291   27.2770 C   0  0  0  0  0  0  0  0  0  0  0  0
   -9.3451    2.8786   26.9046 C   0  0  0  0  0  0  0  0  0  0  0  0
   -6.6065    2.5680   27.5073 C   0  0  0  0  0  0  0  0  0  0  0  0
   -7.4233    1.4858   27.2402 C   0  0  0  0  0  0  0  0  0  0  0  0
   -8.7362    1.6525   26.9989 C   0  0  0  0  0  0  0  0  0  0  0  0
   -9.2878    5.2643   27.2322 C   0  0  0  0  0  0  0  0  0  0  0  0
  -10.4965    5.2917   27.5715 F   0  0  0  0  0  0  0  0  0  0  0  0
   -8.6176    6.2413   28.0972 F   0  0  0  0  0  0  0  0  0  0  0  0
   -9.0840    5.8683   25.9929 F   0  0  0  0  0  0  0  0  0  0  0  0
   -6.7528    0.2117   27.2351 C   0  0  0  0  0  0  0  0  0  0  0  0
   -7.3606   -0.9218   27.1143 C   0  0  0  0  0  0  0  0  0  0  0  0
   -8.8215   -0.8697   27.0329 C   0  0  0  0  0  0  0  0  0  0  0  0
  2  7  1  0
  7  8  1  0
  7  9  1  0
  7 10  1  0
  5 11  1  0
 11 12  2  3
 12 13  1  0
  1  2  2  0
  2  3  1  0
  3  6  2  0
  6  5  1  0
  5  4  2  0
  4  1  1  0
M  END
$$$$
