No_1265-complexes_sdf/6BKW-FPZ/2024-09-17-14-21-01/
     RDKit          3D

 20 20  0  0  0  0  0  0  0  0999 V2000
   -7.7129    4.2099   27.0854 C   0  0  0  0  0  0  0  0  0  0  0  0
   -8.9133    4.4736   27.0998 C   0  0  0  0  0  0  0  0  0  0  0  0
   -9.4643    5.5426   27.7628 C   0  0  0  0  0  0  0  0  0  0  0  0
   -9.8091    3.6358   26.2841 C   0  0  2  0  0  0  0  0  0  0  0  0
  -10.3717    2.5594   26.9241 C   0  0  0  0  0  0  0  0  0  0  0  0
  -10.3040    2.3353   28.2164 C   0  0  0  0  0  0  0  0  0  0  0  0
   -6.8256    4.9273   28.0591 C   0  0  0  0  0  0  0  0  0  0  0  0
   -8.6286    6.4498   28.4781 C   0  0  0  0  0  0  0  0  0  0  0  0
   -7.2720    6.0303   28.5446 C   0  0  0  0  0  0  0  0  0  0  0  0
  -11.0251    1.4983   26.1161 C   0  0  0  0  0  0  0  0  0  0  0  0
  -11.1292    1.7259   24.8546 C   0  0  0  0  0  0  0  0  0  0  0  0
  -10.5066    2.9401   24.2000 C   0  0  2  0  0  0  0  0  0  0  0  0
   -9.8298    3.8523   24.9339 C   0  0  0  0  0  0  0  0  0  0  0  0
   -9.4037    4.9452   24.3923 F   0  0  0  0  0  0  0  0  0  0  0  0
   -8.8111    3.6209   24.5087 F   0  0  0  0  0  0  0  0  0  0  0  0
  -11.0042    3.2482   22.8675 C   0  0  0  0  0  0  0  0  0  0  0  0
  -10.0634    2.3039   23.4531 F   0  0  0  0  0  0  0  0  0  0  0  0
  -10.7592    2.9753   21.6685 O   0  0  0  0  0  0  0  0  0  0  0  0
  -12.3218    3.4628   23.0704 F   0  0  0  0  0  0  0  0  0  0  0  0
  -11.0976    4.7026   25.2136 F   0  0  0  0  0  0  0  0  0  0  0  0
  2  4  1  0
  4  5  1  0
  5  6  2  0
  5 10  1  0
 10 11  2  3
 11 12  1  0
  4 13  1  6
 13 14  1  0
 13 15  1  0
 12 16  1  0
 12 17  1  6
 16 18  2  0
 16 19  1  0
 13 20  1  0
  1  2  2  0
  2  3  1  0
  3  8  2  0
  8  9  1  0
  9  7  2  0
  7  1  1  0
M  END
$$$$
