No_1322-complexes_sdf/6BKW-FPZ/2024-09-17-14-21-01/
     RDKit          3D

 13 14  0  0  0  0  0  0  0  0999 V2000
   -7.9040    3.9820   27.1177 C   0  0  0  0  0  0  0  0  0  0  0  0
   -8.2057    2.8231   26.8733 C   0  0  0  0  0  0  0  0  0  0  0  0
   -7.0130    4.3706   28.1140 C   0  0  0  0  0  0  0  0  0  0  0  0
   -9.3829    2.4374   26.1668 C   0  0  0  0  0  0  0  0  0  0  0  0
  -10.0975    3.4171   25.5988 C   0  0  0  0  0  0  0  0  0  0  0  0
   -9.7085    4.7741   25.7618 C   0  0  0  0  0  0  0  0  0  0  0  0
   -8.7070    5.1118   26.5885 C   0  0  0  0  0  0  0  0  0  0  0  0
   -8.3796    6.4505   26.8989 C   0  0  0  0  0  0  0  0  0  0  0  0
   -6.9540    5.7798   28.4452 C   0  0  0  0  0  0  0  0  0  0  0  0
   -7.4972    6.7375   27.8503 C   0  0  0  0  0  0  0  0  0  0  0  0
   -7.4421    1.6422   27.4615 C   0  0  0  0  0  0  0  0  0  0  0  0
   -6.2429    1.8434   27.8201 O   0  0  0  0  0  0  0  0  0  0  0  0
   -7.8821    0.4643   27.4826 F   0  0  0  0  0  0  0  0  0  0  0  0
  2 11  1  0
 11 12  2  0
 11 13  1  0
  1  3  1  0
  3  9  2  0
  9 10  1  0
 10  8  2  0
  8  7  1  0
  1  2  2  0
  2  4  1  0
  4  5  2  0
  5  6  1  0
  6  7  2  0
  7  1  1  0
M  END
$$$$
