No_1055-complexes_sdf/6BKW-FPZ/2024-09-17-14-21-01/
     RDKit          3D

 30 33  0  0  0  0  0  0  0  0999 V2000
   -7.2496    3.8871   27.4508 C   0  0  0  0  0  0  0  0  0  0  0  0
   -7.9379    4.9063   27.8518 C   0  0  0  0  0  0  0  0  0  0  0  0
   -9.3460    4.8223   27.8695 C   0  0  0  0  0  0  0  0  0  0  0  0
   -7.8628    2.6163   27.1065 C   0  0  0  0  0  0  0  0  0  0  0  0
   -9.2787    2.5744   27.1970 C   0  0  0  0  0  0  0  0  0  0  0  0
  -10.0108    3.6770   27.6340 C   0  0  0  0  0  0  0  0  0  0  0  0
  -11.5178    3.7574   27.7698 C   0  0  0  0  0  0  0  0  0  0  0  0
  -11.9381    3.1535   28.8903 C   0  0  0  0  0  0  0  0  0  0  0  0
  -13.3442    3.1231   29.2495 C   0  0  0  0  0  0  0  0  0  0  0  0
  -14.1801    3.8602   28.3760 C   0  0  0  0  0  0  0  0  0  0  0  0
  -13.6692    4.4615   27.2523 C   0  0  0  0  0  0  0  0  0  0  0  0
  -12.3068    4.4874   26.9751 C   0  0  0  0  0  0  0  0  0  0  0  0
   -7.1452    1.1694   26.7554 Cl  0  0  0  0  0  0  0  0  0  0  0  0
   -7.2923    6.0503   28.1094 O   0  0  0  0  0  0  0  0  0  0  0  0
  -13.8326    2.4101   30.4329 C   0  0  2  0  0  0  0  0  0  0  0  0
  -15.0983    2.4611   30.6244 O   0  0  0  0  0  0  0  0  0  0  0  0
  -15.5321    2.2451   31.7463 C   0  0  0  0  0  0  0  0  0  0  0  0
  -14.7055    1.7328   32.5521 C   0  0  0  0  0  0  0  0  0  0  0  0
  -13.3541    1.8000   32.5284 C   0  0  0  0  0  0  0  0  0  0  0  0
  -12.9271    2.2658   31.4421 C   0  0  0  0  0  0  0  0  0  0  0  0
  -17.0282    2.0678   31.8696 C   0  0  0  0  0  0  0  0  0  0  0  0
  -17.5930    1.6683   32.6063 O   0  0  0  0  0  0  0  0  0  0  0  0
  -17.6267    2.7113   30.7929 O   0  0  0  0  0  0  0  0  0  0  0  0
  -18.6320    2.1336   30.0751 C   0  0  0  0  0  0  0  0  0  0  0  0
  -18.7489    2.6148   28.8676 C   0  0  0  0  0  0  0  0  0  0  0  0
  -18.5960    3.8523   28.4897 C   0  0  0  0  0  0  0  0  0  0  0  0
  -18.6906    4.3639   27.1164 C   0  0  0  0  0  0  0  0  0  0  0  0
  -19.0113    3.4052   26.1597 C   0  0  0  0  0  0  0  0  0  0  0  0
  -19.2230    2.0928   26.5026 C   0  0  0  0  0  0  0  0  0  0  0  0
  -19.0739    1.6930   27.8383 C   0  0  0  0  0  0  0  0  0  0  0  0
  6  7  1  0
  4 13  1  0
  2 14  1  0
 15  9  1  1
 15 16  1  0
 16 17  1  0
 17 18  2  0
 18 19  1  0
 15 20  1  0
 19 20  1  0
 17 21  1  0
 21 22  2  0
 21 23  1  0
 23 24  1  0
 24 25  1  0
 25 26  2  0
 26 27  1  0
 27 28  2  0
 28 29  1  0
 29 30  2  0
 30 25  1  0
  1  2  2  0
  2  3  1  0
  3  6  2  0
  6  5  1  0
  5  4  2  0
  4  1  1  0
  7  8  2  0
  8  9  1  0
  9 10  2  0
 10 11  1  0
 11 12  2  0
 12  7  1  0
M  END
$$$$
