No_1777-complexes_sdf/6BKW-FPZ/2024-09-17-14-21-01/
     RDKit          3D

 12 13  0  0  0  0  0  0  0  0999 V2000
   -7.9040    3.9820   27.1177 C   0  0  0  0  0  0  0  0  0  0  0  0
   -7.8663    4.8694   27.9238 C   0  0  0  0  0  0  0  0  0  0  0  0
   -9.0491    3.8523   26.2542 C   0  0  0  0  0  0  0  0  0  0  0  0
   -8.6019    5.9544   27.7203 C   0  0  0  0  0  0  0  0  0  0  0  0
   -9.7838    4.9247   26.0626 C   0  0  0  0  0  0  0  0  0  0  0  0
   -9.6083    6.0325   26.8808 C   0  0  0  0  0  0  0  0  0  0  0  0
   -7.0940    2.6787   27.3460 C   0  0  0  0  0  0  0  0  0  0  0  0
   -5.8868    2.7554   28.0203 C   0  0  0  0  0  0  0  0  0  0  0  0
   -5.0489    1.6133   28.1372 C   0  0  0  0  0  0  0  0  0  0  0  0
   -5.5092    0.3805   27.7120 C   0  0  0  0  0  0  0  0  0  0  0  0
   -7.5152    1.4460   26.9051 C   0  0  0  0  0  0  0  0  0  0  0  0
   -6.7992    0.3092   27.1450 C   0  0  0  0  0  0  0  0  0  0  0  0
  1  7  1  0
  7  8  2  0
  8  9  1  0
  9 10  2  0
 10 12  1  0
 12 11  2  0
 11  7  1  0
  1  2  2  0
  2  4  1  0
  4  6  2  0
  6  5  1  0
  5  3  2  0
  3  1  1  0
M  END
$$$$
