No_1001-complexes_sdf/6BKW-FPZ/2024-09-17-14-21-01/
     RDKit          3D

 19 21  0  0  0  0  0  0  0  0999 V2000
   -7.9040    3.9820   27.1177 C   0  0  0  0  0  0  0  0  0  0  0  0
   -8.2057    2.8231   26.8733 C   0  0  0  0  0  0  0  0  0  0  0  0
   -9.2962    2.4021   26.1155 C   0  0  0  0  0  0  0  0  0  0  0  0
   -8.7358    5.0662   26.5917 C   0  0  0  0  0  0  0  0  0  0  0  0
   -9.7618    4.7023   25.7546 C   0  0  0  0  0  0  0  0  0  0  0  0
  -10.0066    3.4105   25.4922 C   0  0  0  0  0  0  0  0  0  0  0  0
   -8.3943    6.4761   26.8801 C   0  0  0  0  0  0  0  0  0  0  0  0
   -8.0394    6.8605   28.0789 N   0  0  0  0  0  0  0  0  0  0  0  0
   -8.3305    7.3748   25.9292 N   0  0  0  0  0  0  0  0  0  0  0  0
   -7.3592    1.6789   27.4987 C   0  0  0  0  0  0  0  0  0  0  0  0
   -6.0072    1.9401   27.8068 C   0  0  0  0  0  0  0  0  0  0  0  0
   -5.1578    0.7948   28.2126 C   0  0  0  0  0  0  0  0  0  0  0  0
   -5.6934   -0.4479   28.3473 C   0  0  0  0  0  0  0  0  0  0  0  0
   -7.7268    0.3312   27.4735 C   0  0  0  0  0  0  0  0  0  0  0  0
   -4.8608   -1.4814   28.7768 C   0  0  0  0  0  0  0  0  0  0  0  0
   -6.9947   -0.6799   27.9755 C   0  0  0  0  0  0  0  0  0  0  0  0
   -3.6936   -1.4259   28.8434 C   0  0  0  0  0  0  0  0  0  0  0  0
   -3.0085   -0.0463   28.7110 C   0  0  0  0  0  0  0  0  0  0  0  0
   -3.7564    1.0380   28.3529 C   0  0  0  0  0  0  0  0  0  0  0  0
  4  7  1  0
  7  8  2  0
  7  9  1  0
  2 10  1  0
 10 11  2  0
 11 12  1  0
 13 16  1  0
 16 14  2  0
 14 10  1  0
  1  2  2  0
  2  3  1  0
  3  6  2  0
  6  5  1  0
  5  4  2  0
  4  1  1  0
 12 13  2  0
 13 15  1  0
 15 17  2  0
 17 18  1  0
 18 19  2  0
 19 12  1  0
M  END
$$$$
