No_1052-complexes_sdf/6BKW-FPZ/2024-09-17-14-21-01/
     RDKit          3D

 24 25  0  0  0  0  0  0  0  0999 V2000
   -7.2496    3.8871   27.4508 C   0  0  0  0  0  0  0  0  0  0  0  0
   -8.5096    4.0291   27.2770 C   0  0  0  0  0  0  0  0  0  0  0  0
   -9.2669    5.1645   27.5845 C   0  0  0  0  0  0  0  0  0  0  0  0
  -10.6621    5.2321   27.4284 C   0  0  0  0  0  0  0  0  0  0  0  0
   -9.2831    2.8719   26.7564 C   0  0  0  0  0  0  0  0  0  0  0  0
   -8.5831    1.7059   26.4529 C   0  0  0  0  0  0  0  0  0  0  0  0
   -6.5244    2.6560   27.3972 C   0  0  0  0  0  0  0  0  0  0  0  0
   -7.2358    1.5939   26.8620 C   0  0  0  0  0  0  0  0  0  0  0  0
   -8.5389    6.4186   27.8343 C   0  0  0  0  0  0  0  0  0  0  0  0
   -9.2348    0.5308   25.9651 C   0  0  0  0  0  0  0  0  0  0  0  0
   -8.7222   -0.3211   25.4516 C   0  0  0  0  0  0  0  0  0  0  0  0
   -7.2704   -0.2345   25.3100 C   0  0  0  0  0  0  0  0  0  0  0  0
   -6.4844    0.5377   26.2859 N   0  0  0  0  0  0  0  0  0  0  0  0
   -5.3382    0.0323   26.9480 C   0  0  0  0  0  0  0  0  0  0  0  0
   -5.3404    0.0795   28.3036 C   0  0  0  0  0  0  0  0  0  0  0  0
   -4.0855    0.0908   28.9553 C   0  0  0  0  0  0  0  0  0  0  0  0
   -3.9519    0.0541   30.3860 C   0  0  0  0  0  0  0  0  0  0  0  0
   -4.9855   -0.4041   31.1859 C   0  0  0  0  0  0  0  0  0  0  0  0
   -4.8342   -0.4583   32.5936 C   0  0  0  0  0  0  0  0  0  0  0  0
   -3.5423   -0.4165   33.1229 C   0  0  0  0  0  0  0  0  0  0  0  0
   -2.4132   -0.1809   32.2834 C   0  0  0  0  0  0  0  0  0  0  0  0
   -2.6225    0.0456   30.9597 C   0  0  0  0  0  0  0  0  0  0  0  0
   -4.3307    1.1142   30.4161 F   0  0  0  0  0  0  0  0  0  0  0  0
   -1.5766    0.0258   30.1704 O   0  0  0  0  0  0  0  0  0  0  0  0
  2  3  1  0
  3  4  1  0
  3  9  1  0
  6 10  1  0
 11 12  1  0
  8 13  1  0
 12 13  1  0
 13 14  1  0
 14 15  1  0
 15 16  2  3
 16 17  1  0
 17 18  2  3
 18 19  1  0
 19 20  2  3
 20 21  1  0
 21 22  1  0
 17 23  1  0
 22 24  1  0
 10 11  1  0
  1  2  2  0
  2  5  1  0
  5  6  2  0
  6  8  1  0
  8  7  2  0
  7  1  1  0
M  END
$$$$
