No_1-complexes_sdf/6BKW-FPZ/2024-09-17-14-21-01/
     RDKit          3D

 21 23  0  0  0  0  0  0  0  0999 V2000
   -7.9040    3.9820   27.1177 C   0  0  0  0  0  0  0  0  0  0  0  0
   -7.8663    4.8694   27.9238 C   0  0  0  0  0  0  0  0  0  0  0  0
   -7.4547    2.7080   27.4594 C   0  0  0  0  0  0  0  0  0  0  0  0
   -8.7044    6.0412   27.8492 C   0  0  0  0  0  0  0  0  0  0  0  0
   -7.9501    1.5743   26.8848 C   0  0  0  0  0  0  0  0  0  0  0  0
   -8.8773    1.7289   25.8707 C   0  0  0  0  0  0  0  0  0  0  0  0
   -9.3595    2.9624   25.5238 C   0  0  0  0  0  0  0  0  0  0  0  0
   -9.0069    4.0555   26.2453 C   0  0  0  0  0  0  0  0  0  0  0  0
   -9.5202    5.3514   26.3129 C   0  0  0  0  0  0  0  0  0  0  0  0
  -10.3246    3.1711   24.4359 C   0  0  0  0  0  0  0  0  0  0  0  0
  -10.8535    4.2683   24.1719 N   0  0  0  0  0  0  0  0  0  0  0  0
  -10.5733    2.1123   23.4964 C   0  0  0  0  0  0  0  0  0  0  0  0
  -11.7017    4.5771   23.0834 C   0  0  0  0  0  0  0  0  0  0  0  0
  -11.3375    2.2867   22.3771 C   0  0  0  0  0  0  0  0  0  0  0  0
  -11.9431    3.5634   22.2348 C   0  0  0  0  0  0  0  0  0  0  0  0
   -7.3298    0.2086   27.0564 C   0  0  0  0  0  0  0  0  0  0  0  0
   -6.1429    0.0501   27.5036 N   0  0  0  0  0  0  0  0  0  0  0  0
   -5.5440   -0.9934   27.9527 C   0  0  0  0  0  0  0  0  0  0  0  0
   -4.2605   -0.8724   28.5960 C   0  0  0  0  0  0  0  0  0  0  0  0
   -3.6315    0.4096   28.6258 C   0  0  0  0  0  0  0  0  0  0  0  0
   -4.3578    1.5153   28.1802 C   0  0  0  0  0  0  0  0  0  0  0  0
  1  2  1  0
  2  4  2  0
  4  9  1  0
  8  9  1  0
  7 10  1  0
  5 16  1  0
 16 17  1  0
 17 18  2  3
 18 19  1  0
 19 20  2  3
 20 21  1  0
 10 11  2  0
 11 13  1  0
 13 15  2  0
 15 14  1  0
 14 12  2  0
 12 10  1  0
  1  3  2  0
  3  5  1  0
  5  6  2  0
  6  7  1  0
  7  8  2  0
  8  1  1  0
M  END
$$$$
