No_1341-complexes_sdf/6BKW-FPZ/2024-09-17-14-21-01/
     RDKit          3D

 11 11  0  0  0  0  0  0  0  0999 V2000
   -7.9040    3.9820   27.1177 C   0  0  0  0  0  0  0  0  0  0  0  0
   -8.2057    2.8231   26.8733 C   0  0  0  0  0  0  0  0  0  0  0  0
   -8.7463    4.9537   27.6708 C   0  0  0  0  0  0  0  0  0  0  0  0
   -8.3921    6.3606   27.8466 C   0  0  0  0  0  0  0  0  0  0  0  0
   -7.2888    1.7783   26.5516 C   0  0  0  0  0  0  0  0  0  0  0  0
   -9.6395    2.5230   26.7588 C   0  0  0  0  0  0  0  0  0  0  0  0
  -10.6145    3.3915   27.2695 C   0  0  0  0  0  0  0  0  0  0  0  0
  -10.1864    4.6844   27.6956 C   0  0  0  0  0  0  0  0  0  0  0  0
   -6.3801    1.5651   27.5879 N   0  0  0  0  0  0  0  0  0  0  0  0
   -5.4945    0.4934   27.5786 C   0  0  0  0  0  0  0  0  0  0  0  0
   -5.7856   -0.5670   26.8653 C   0  0  0  0  0  0  0  0  0  0  0  0
  3  4  1  0
  5  9  1  0
  9 10  2  3
 10 11  1  0
  5  2  1  0
  1  2  2  0
  2  6  1  0
  6  7  2  0
  7  8  1  0
  8  3  2  0
  3  1  1  0
M  END
$$$$
