No_1321-complexes_sdf/6BKW-FPZ/2024-09-17-14-21-01/
     RDKit          3D

 20 21  0  0  0  0  0  0  0  0999 V2000
   -7.9040    3.9820   27.1177 C   0  0  0  0  0  0  0  0  0  0  0  0
   -8.2057    2.8231   26.8733 C   0  0  0  0  0  0  0  0  0  0  0  0
   -8.7695    5.0740   26.7916 C   0  0  0  0  0  0  0  0  0  0  0  0
   -9.9618    4.7598   26.1630 C   0  0  0  0  0  0  0  0  0  0  0  0
   -9.4200    2.4524   26.2850 C   0  0  0  0  0  0  0  0  0  0  0  0
  -10.2590    3.4815   25.9250 C   0  0  0  0  0  0  0  0  0  0  0  0
   -8.3840    6.4693   27.0829 C   0  0  0  0  0  0  0  0  0  0  0  0
   -7.7493    6.7880   28.2320 C   0  0  0  0  0  0  0  0  0  0  0  0
   -8.7416    7.4996   26.1898 C   0  0  0  0  0  0  0  0  0  0  0  0
   -7.2771    1.6629   27.2957 C   0  0  0  0  0  0  0  0  0  0  0  0
   -6.0014    1.9492   27.8338 C   0  0  0  0  0  0  0  0  0  0  0  0
   -5.1453    0.8732   28.1944 C   0  0  0  0  0  0  0  0  0  0  0  0
   -5.5499   -0.4008   28.0740 C   0  0  0  0  0  0  0  0  0  0  0  0
   -7.6188    0.3113   27.2068 C   0  0  0  0  0  0  0  0  0  0  0  0
   -6.8532   -0.6563   27.6326 C   0  0  0  0  0  0  0  0  0  0  0  0
   -3.9338    1.2508   28.6527 F   0  0  0  0  0  0  0  0  0  0  0  0
  -11.4767    3.1668   25.1390 C   0  0  0  0  0  0  0  0  0  0  0  0
  -11.7403    3.9052   23.9765 C   0  0  0  0  0  0  0  0  0  0  0  0
  -10.6772    4.1175   23.1284 C   0  0  0  0  0  0  0  0  0  0  0  0
  -10.8732    4.8048   21.8720 C   0  0  0  0  0  0  0  0  0  0  0  0
  3  7  1  0
  7  8  1  0
  7  9  1  0
  2 10  1  0
 12 16  1  0
  6 17  1  0
 17 18  1  0
 18 19  2  3
 19 20  1  0
 10 11  2  0
 11 12  1  0
 12 13  2  0
 13 15  1  0
 15 14  2  0
 14 10  1  0
  1  2  2  0
  2  5  1  0
  5  6  2  0
  6  4  1  0
  4  3  2  0
  3  1  1  0
M  END
$$$$
