No_1102-complexes_sdf/6BKW-FPZ/2024-09-17-14-21-01/
     RDKit          3D

 37 43  0  0  0  0  0  0  0  0999 V2000
   -7.9040    3.9820   27.1177 C   0  0  0  0  0  0  0  0  0  0  0  0
   -7.8663    4.8694   27.9238 C   0  0  0  0  0  0  0  0  0  0  0  0
   -7.4698    2.6989   27.4277 C   0  0  0  0  0  0  0  0  0  0  0  0
   -7.9683    1.5964   26.8266 C   0  0  0  0  0  0  0  0  0  0  0  0
   -8.9447    1.7923   25.8533 C   0  0  0  0  0  0  0  0  0  0  0  0
   -9.4405    2.9988   25.5757 C   0  0  0  0  0  0  0  0  0  0  0  0
   -8.9424    4.1117   26.2388 C   0  0  0  0  0  0  0  0  0  0  0  0
   -8.3103    6.1970   27.6444 N   0  0  0  0  0  0  0  0  0  0  0  0
   -9.1782    6.4963   26.6776 C   0  0  0  0  0  0  0  0  0  0  0  0
   -9.5449    5.3904   25.9238 C   0  0  0  0  0  0  0  0  0  0  0  0
   -7.3881    0.2591   27.0923 C   0  0  0  0  0  0  0  0  0  0  0  0
   -6.0878    0.1334   27.5415 C   0  0  0  0  0  0  0  0  0  0  0  0
   -5.4918   -1.0137   27.8464 C   0  0  0  0  0  0  0  0  0  0  0  0
   -6.2834   -2.1595   27.7376 C   0  0  0  0  0  0  0  0  0  0  0  0
   -7.7518   -1.1466   27.0902 C   0  0  0  0  0  0  0  0  0  0  0  0
   -4.1044   -1.1898   28.4133 C   0  0  2  0  0  0  0  0  0  0  0  0
   -3.9018   -0.8086   29.7386 C   0  0  0  0  0  0  0  0  0  0  0  0
   -3.0624   -1.5003   30.5464 C   0  0  0  0  0  0  0  0  0  0  0  0
   -2.7861   -1.0105   31.9328 C   0  0  0  0  0  0  0  0  0  0  0  0
   -3.3537    0.1963   32.2973 C   0  0  0  0  0  0  0  0  0  0  0  0
   -4.0962    0.8603   31.3929 C   0  0  0  0  0  0  0  0  0  0  0  0
   -4.3734    0.4547   30.1944 C   0  0  0  0  0  0  0  0  0  0  0  0
   -8.8998   -1.7910   26.7228 C   0  0  0  0  0  0  0  0  0  0  0  0
   -9.0619   -3.0586   26.7831 C   0  0  0  0  0  0  0  0  0  0  0  0
  -10.3273   -3.6474   26.4137 C   0  0  0  0  0  0  0  0  0  0  0  0
  -11.3228   -2.7806   25.9669 C   0  0  0  0  0  0  0  0  0  0  0  0
  -11.1418   -1.4227   25.9538 C   0  0  0  0  0  0  0  0  0  0  0  0
   -9.9429   -0.8697   26.3969 C   0  0  0  0  0  0  0  0  0  0  0  0
   -3.1537   -0.5559   27.4191 C   0  0  0  0  0  0  0  0  0  0  0  0
   -3.8252   -2.7559   28.2668 C   0  0  0  0  0  0  0  0  0  0  0  0
   -4.1549   -3.5474   29.1084 C   0  0  0  0  0  0  0  0  0  0  0  0
   -3.8850   -4.9438   29.0028 C   0  0  0  0  0  0  0  0  0  0  0  0
   -3.2195   -5.3091   27.8882 C   0  0  0  0  0  0  0  0  0  0  0  0
   -3.1075   -3.2474   27.1458 C   0  0  0  0  0  0  0  0  0  0  0  0
   -2.7217   -2.2230   26.0564 C   0  0  0  0  0  0  0  0  0  0  0  0
   -2.8168   -4.5081   26.9521 C   0  0  0  0  0  0  0  0  0  0  0  0
   -2.7470   -0.8956   26.1820 C   0  0  0  0  0  0  0  0  0  0  0  0
  4 11  1  0
 11 12  2  0
 12 13  1  0
 13 14  2  0
 11 15  1  0
 14 15  1  0
 16 13  1  6
 16 17  1  0
 15 23  1  0
 16 29  1  0
 16 30  1  0
 34 35  1  0
 29 37  1  0
 37 35  1  0
  1  2  2  0
  2  8  1  0
  8  9  2  0
  9 10  1  0
 10  7  2  0
 23 24  2  0
 24 25  1  0
 25 26  2  0
 26 27  1  0
 27 28  2  0
 28 23  1  0
  1  3  1  0
  3  4  2  0
  4  5  1  0
  5  6  2  0
  6  7  1  0
  7  1  1  0
 30 31  2  0
 31 32  1  0
 32 33  2  0
 33 36  1  0
 36 34  2  0
 34 30  1  0
 17 18  2  0
 18 19  1  0
 19 20  2  0
 20 21  1  0
 21 22  2  0
 22 17  1  0
M  END
$$$$
