No_1893-complexes_sdf/6BKW-FPZ/2024-09-17-14-21-01/
     RDKit          3D

 20 23  0  0  0  0  0  0  0  0999 V2000
   -7.7129    4.2099   27.0854 C   0  0  0  0  0  0  0  0  0  0  0  0
   -7.7814    5.1722   27.8972 C   0  0  0  0  0  0  0  0  0  0  0  0
   -8.8255    3.2789   27.1191 C   0  0  0  0  0  0  0  0  0  0  0  0
   -9.9209    3.4734   27.9101 C   0  0  0  0  0  0  0  0  0  0  0  0
  -10.0316    4.7089   28.6463 C   0  0  0  0  0  0  0  0  0  0  0  0
   -9.0018    5.4944   28.4471 C   0  0  0  0  0  0  0  0  0  0  0  0
   -8.6700    1.9515   26.4077 C   0  0  0  0  0  0  0  0  0  0  0  0
   -9.1275    1.1050   26.7247 C   0  0  0  0  0  0  0  0  0  0  0  0
   -8.9845   -0.1734   26.0509 C   0  0  0  0  0  0  0  0  0  0  0  0
   -8.1922   -0.1640   24.9503 C   0  0  0  0  0  0  0  0  0  0  0  0
   -7.7201    1.0055   24.4147 C   0  0  0  0  0  0  0  0  0  0  0  0
   -7.9056    2.1642   25.1115 C   0  0  0  0  0  0  0  0  0  0  0  0
  -11.0086    2.5076   27.9880 C   0  0  0  0  0  0  0  0  0  0  0  0
  -10.6122    1.1587   27.4911 C   0  0  0  0  0  0  0  0  0  0  0  0
  -12.2746    2.9272   27.2799 C   0  0  0  0  0  0  0  0  0  0  0  0
  -13.1418    3.5140   28.1244 C   0  0  0  0  0  0  0  0  0  0  0  0
  -14.2337    4.2424   27.7582 C   0  0  0  0  0  0  0  0  0  0  0  0
  -12.4125    2.9654   25.9270 C   0  0  0  0  0  0  0  0  0  0  0  0
  -13.5265    3.7127   25.4095 C   0  0  0  0  0  0  0  0  0  0  0  0
  -14.4209    4.3505   26.2947 C   0  0  0  0  0  0  0  0  0  0  0  0
 13 15  1  0
 15 16  2  0
 16 17  1  0
 17 20  2  0
 20 19  1  0
 19 18  2  0
 18 15  1  0
  1  2  2  0
  2  6  1  0
  6  5  2  0
  5  4  1  0
  3  1  1  0
  3  4  2  0
  4 13  1  0
 13 14  2  0
 14  8  1  0
  7  3  1  0
  7  8  2  0
  8  9  1  0
  9 10  2  0
 10 11  1  0
 11 12  2  0
 12  7  1  0
M  END
$$$$
