No_1268-complexes_sdf/6BKW-FPZ/2024-09-17-14-21-01/
     RDKit          3D

 23 25  0  0  0  0  0  0  0  0999 V2000
   -7.7129    4.2099   27.0854 C   0  0  0  0  0  0  0  0  0  0  0  0
   -8.2112    3.0637   26.9225 C   0  0  0  0  0  0  0  0  0  0  0  0
   -8.4224    5.2106   27.8516 C   0  0  0  0  0  0  0  0  0  0  0  0
   -9.5628    2.7160   27.4089 C   0  0  0  0  0  0  0  0  0  0  0  0
  -10.2428    3.7496   28.1155 C   0  0  0  0  0  0  0  0  0  0  0  0
   -9.6677    4.9738   28.3232 C   0  0  0  0  0  0  0  0  0  0  0  0
   -7.7834    6.4141   28.0170 O   0  0  0  0  0  0  0  0  0  0  0  0
  -10.1026    1.3916   27.2160 C   0  0  0  0  0  0  0  0  0  0  0  0
  -11.1210    1.0601   27.9941 C   0  0  0  0  0  0  0  0  0  0  0  0
  -11.6968   -0.2422   27.8801 C   0  0  0  0  0  0  0  0  0  0  0  0
  -11.0391   -1.1497   27.0703 C   0  0  0  0  0  0  0  0  0  0  0  0
   -9.5928    0.2833   26.5535 C   0  0  0  0  0  0  0  0  0  0  0  0
   -9.9984   -0.8858   26.4352 C   0  0  0  0  0  0  0  0  0  0  0  0
   -9.3398   -1.8877   25.5582 C   0  0  0  0  0  0  0  0  0  0  0  0
   -8.4433   -1.5077   24.8959 C   0  0  0  0  0  0  0  0  0  0  0  0
   -7.8148   -0.1195   24.9201 C   0  0  0  0  0  0  0  0  0  0  0  0
   -8.3408    0.7174   25.6855 C   0  0  0  0  0  0  0  0  0  0  0  0
   -6.7450    6.5409   27.1396 C   0  0  0  0  0  0  0  0  0  0  0  0
  -11.6770   -2.5534   27.1601 C   0  0  0  0  0  0  0  0  0  0  0  0
  -12.6418   -2.8051   26.2724 C   0  0  0  0  0  0  0  0  0  0  0  0
  -13.3257   -1.8329   25.6452 C   0  0  0  0  0  0  0  0  0  0  0  0
  -13.8753   -1.6780   24.8158 C   0  0  0  0  0  0  0  0  0  0  0  0
  -14.5641   -0.4515   24.3048 C   0  0  0  0  0  0  0  0  0  0  0  0
  3  7  1  0
  4  8  1  0
  7 18  1  0
 11 19  1  0
 19 20  2  3
 20 21  1  0
 21 22  2  3
 22 23  1  0
  1  2  2  0
  2  4  1  0
  4  5  2  0
  5  6  1  0
  6  3  2  0
  3  1  1  0
 13 14  2  0
 14 15  1  0
 15 16  2  0
 16 17  1  0
 17 12  2  0
  8  9  2  0
  9 10  1  0
 10 11  2  0
 11 13  1  0
 13 12  1  0
 12  8  1  0
M  END
$$$$
