No_1463-complexes_sdf/6BKW-FPZ/2024-09-17-14-21-01/
     RDKit          3D

 37 42  0  0  0  0  0  0  0  0999 V2000
   -7.7129    4.2099   27.0854 C   0  0  0  0  0  0  0  0  0  0  0  0
   -8.2112    3.0637   26.9225 C   0  0  0  0  0  0  0  0  0  0  0  0
   -8.5108    5.3904   26.9436 C   0  0  0  0  0  0  0  0  0  0  0  0
   -7.9752    6.6981   27.2112 C   0  0  0  0  0  0  0  0  0  0  0  0
   -9.5213    2.8208   26.4688 C   0  0  0  0  0  0  0  0  0  0  0  0
  -10.2979    3.9327   26.2378 C   0  0  0  0  0  0  0  0  0  0  0  0
   -9.7894    5.2123   26.4395 C   0  0  0  0  0  0  0  0  0  0  0  0
   -7.1925    1.6286   27.2384 Cl  0  0  0  0  0  0  0  0  0  0  0  0
   -7.9497    7.5460   26.5083 O   0  0  0  0  0  0  0  0  0  0  0  0
   -7.0654    6.6092   28.2872 O   0  0  0  0  0  0  0  0  0  0  0  0
   -9.9797    1.4211   26.2520 C   0  0  0  0  0  0  0  0  0  0  0  0
   -9.7061    0.7723   25.1422 C   0  0  0  0  0  0  0  0  0  0  0  0
  -10.1140   -0.5710   24.9366 C   0  0  0  0  0  0  0  0  0  0  0  0
  -10.8160   -1.1995   25.9669 C   0  0  0  0  0  0  0  0  0  0  0  0
  -11.0528   -0.5311   27.1745 C   0  0  0  0  0  0  0  0  0  0  0  0
  -10.6169    0.8233   27.3860 C   0  0  0  0  0  0  0  0  0  0  0  0
  -11.7703   -1.1945   28.3115 C   0  0  0  0  0  0  0  0  0  0  0  0
  -12.7107   -0.4857   28.9659 C   0  0  0  0  0  0  0  0  0  0  0  0
  -11.4174   -2.4938   28.6784 C   0  0  0  0  0  0  0  0  0  0  0  0
  -10.3668   -3.0374   28.5420 C   0  0  0  0  0  0  0  0  0  0  0  0
  -10.0912   -4.3735   28.9185 C   0  0  0  0  0  0  0  0  0  0  0  0
  -13.7778   -0.5022   28.8472 C   0  0  0  0  0  0  0  0  0  0  0  0
  -14.7650    0.3925   29.4466 C   0  0  0  0  0  0  0  0  0  0  0  0
  -14.2875    1.4311   30.2507 C   0  0  0  0  0  0  0  0  0  0  0  0
  -12.9001    1.6793   30.2764 C   0  0  0  0  0  0  0  0  0  0  0  0
  -12.0832    0.8543   29.6180 C   0  0  0  0  0  0  0  0  0  0  0  0
  -12.5222   -3.4421   28.8043 C   0  0  0  0  0  0  0  0  0  0  0  0
  -12.4376   -4.7007   29.1926 C   0  0  0  0  0  0  0  0  0  0  0  0
  -11.1294   -5.1826   29.2299 C   0  0  0  0  0  0  0  0  0  0  0  0
  -15.2329    2.4026   30.9068 C   0  0  0  0  0  0  0  0  0  0  0  0
  -14.8604    3.2496   31.7676 C   0  0  0  0  0  0  0  0  0  0  0  0
  -15.1705    3.9043   32.5885 C   0  0  0  0  0  0  0  0  0  0  0  0
  -14.5111    4.9237   33.4995 C   0  0  0  0  0  0  0  0  0  0  0  0
  -13.1096    4.8178   33.4773 C   0  0  0  0  0  0  0  0  0  0  0  0
  -12.5131    3.8999   32.5641 C   0  0  0  0  0  0  0  0  0  0  0  0
  -13.2438    3.2080   31.8148 C   0  0  0  0  0  0  0  0  0  0  0  0
  -12.5696    2.4129   30.9397 N   0  0  0  0  0  0  0  0  0  0  0  0
  3  4  1  0
  2  8  1  0
  4  9  2  0
  4 10  1  0
  5 11  1  0
 15 17  1  0
 17 18  1  0
 17 19  1  0
 24 30  1  0
 30 31  1  0
 25 37  1  0
 36 37  1  0
  1  2  2  0
  2  5  1  0
  5  6  2  0
  6  7  1  0
  7  3  2  0
  3  1  1  0
 31 32  2  0
 32 33  1  0
 33 34  2  0
 34 35  1  0
 35 36  2  0
 36 31  1  0
 18 22  2  0
 22 23  1  0
 23 24  2  0
 24 25  1  0
 25 26  2  0
 26 18  1  0
 11 12  2  0
 12 13  1  0
 13 14  2  0
 14 15  1  0
 15 16  2  0
 16 11  1  0
 19 20  2  0
 20 21  1  0
 21 29  2  0
 29 28  1  0
 28 27  2  0
 27 19  1  0
M  END
$$$$
