No_1966-complexes_sdf/6BKW-FPZ/2024-09-17-14-21-01/
     RDKit          3D

 19 21  0  0  0  0  0  0  0  0999 V2000
   -7.2496    3.8871   27.4508 C   0  0  0  0  0  0  0  0  0  0  0  0
   -7.9379    4.9063   27.8518 C   0  0  0  0  0  0  0  0  0  0  0  0
   -9.3376    4.8647   27.7795 C   0  0  0  0  0  0  0  0  0  0  0  0
   -7.8544    2.6294   27.0414 C   0  0  0  0  0  0  0  0  0  0  0  0
   -9.2852    2.6570   27.0666 C   0  0  0  0  0  0  0  0  0  0  0  0
  -10.0126    3.7528   27.4890 C   0  0  0  0  0  0  0  0  0  0  0  0
  -11.4946    3.6924   27.5201 C   0  0  0  0  0  0  0  0  0  0  0  0
  -12.0181    2.6419   28.0792 C   0  0  0  0  0  0  0  0  0  0  0  0
  -13.3310    2.5853   28.5250 C   0  0  0  0  0  0  0  0  0  0  0  0
  -13.9327    3.5204   28.4016 C   0  0  0  0  0  0  0  0  0  0  0  0
  -13.5774    4.7744   27.8388 C   0  0  0  0  0  0  0  0  0  0  0  0
  -12.1951    4.8622   27.5080 C   0  0  0  0  0  0  0  0  0  0  0  0
   -7.1381    1.4698   26.7367 C   0  0  0  0  0  0  0  0  0  0  0  0
   -7.7254    0.4844   25.9277 C   0  0  0  0  0  0  0  0  0  0  0  0
   -7.0164   -0.6357   25.6936 C   0  0  0  0  0  0  0  0  0  0  0  0
   -5.7797   -0.8912   26.3446 C   0  0  0  0  0  0  0  0  0  0  0  0
   -5.2366    0.0510   27.2212 C   0  0  0  0  0  0  0  0  0  0  0  0
   -5.9304    1.2205   27.4867 C   0  0  0  0  0  0  0  0  0  0  0  0
   -7.2749    6.0597   28.2042 O   0  0  0  0  0  0  0  0  0  0  0  0
  6  7  1  0
  4 13  1  0
  2 19  1  0
 13 14  2  0
 14 15  1  0
 15 16  2  0
 16 17  1  0
 17 18  2  0
 18 13  1  0
  1  2  2  0
  2  3  1  0
  3  6  2  0
  6  5  1  0
  5  4  2  0
  4  1  1  0
  7  8  2  0
  8  9  1  0
  9 10  2  0
 10 11  1  0
 11 12  2  0
 12  7  1  0
M  END
$$$$
