No_107-complexes_sdf/6BKW-FPZ/2024-09-17-14-21-01/
     RDKit          3D

 14 16  0  0  0  0  0  0  0  0999 V2000
   -7.7129    4.2099   27.0854 C   0  0  0  0  0  0  0  0  0  0  0  0
   -7.7814    5.1722   27.8972 C   0  0  0  0  0  0  0  0  0  0  0  0
   -8.8776    3.8408   26.3416 C   0  0  0  0  0  0  0  0  0  0  0  0
   -9.9844    4.6492   26.4743 C   0  0  0  0  0  0  0  0  0  0  0  0
   -8.7830    6.1594   27.8870 C   0  0  0  0  0  0  0  0  0  0  0  0
   -9.9269    5.8191   27.1183 C   0  0  0  0  0  0  0  0  0  0  0  0
   -8.8798    2.6033   25.5707 C   0  0  0  0  0  0  0  0  0  0  0  0
   -9.7725    2.4351   24.5484 C   0  0  0  0  0  0  0  0  0  0  0  0
   -9.7674    1.2831   23.7678 C   0  0  0  0  0  0  0  0  0  0  0  0
  -10.5794    1.1795   22.6019 C   0  0  0  0  0  0  0  0  0  0  0  0
  -11.4422    2.2629   22.3292 C   0  0  0  0  0  0  0  0  0  0  0  0
  -11.4501    3.3806   23.0682 C   0  0  0  0  0  0  0  0  0  0  0  0
  -10.5687    3.5264   24.1690 C   0  0  0  0  0  0  0  0  0  0  0  0
  -10.9265    4.4819   25.3035 C   0  0  0  0  0  0  0  0  0  0  0  0
  4 14  2  0
 14 13  1  0
  8  7  1  0
  7  3  2  0
  8  9  2  0
  9 10  1  0
 10 11  2  0
 11 12  1  0
 12 13  2  0
 13  8  1  0
  1  2  2  0
  2  5  1  0
  5  6  2  0
  6  4  1  0
  4  3  1  0
  3  1  1  0
M  END
$$$$
