No_1443-complexes_sdf/6BKW-FPZ/2024-09-17-14-21-01/
     RDKit          3D

 10 10  0  0  0  0  0  0  0  0999 V2000
   -7.7129    4.2099   27.0854 C   0  0  1  0  0  0  0  0  0  0  0  0
   -8.9133    4.4736   27.0998 C   0  0  0  0  0  0  0  0  0  0  0  0
   -9.7135    3.9633   26.0300 C   0  0  0  0  0  0  0  0  0  0  0  0
   -6.8420    4.9760   28.0851 C   0  0  0  0  0  0  0  0  0  0  0  0
   -9.9322    2.5915   25.9958 C   0  0  2  0  0  0  0  0  0  0  0  0
   -8.6455    1.8699   26.1981 C   0  0  0  0  0  0  0  0  0  0  0  0
   -7.7519    2.5333   27.2430 C   0  0  0  0  0  0  0  0  0  0  0  0
  -10.5878    2.0133   24.7428 C   0  0  0  0  0  0  0  0  0  0  0  0
  -11.3215    2.7388   24.0896 C   0  0  0  0  0  0  0  0  0  0  0  0
  -12.2785    2.2555   23.2368 C   0  0  0  0  0  0  0  0  0  0  0  0
  1  2  1  0
  2  3  1  0
  1  4  1  1
  5  3  1  6
  5  6  1  0
  1  7  1  0
  6  7  1  0
  5  8  1  0
  8  9  2  3
  9 10  1  0
M  END
$$$$
