No_189-complexes_sdf/6BKW-FPZ/2024-09-17-14-21-01/
     RDKit          3D

 12 12  0  0  0  0  0  0  0  0999 V2000
   -7.7129    4.2099   27.0854 C   0  0  0  0  0  0  0  0  0  0  0  0
   -8.2112    3.0637   26.9225 C   0  0  0  0  0  0  0  0  0  0  0  0
   -8.4224    5.2106   27.8516 C   0  0  0  0  0  0  0  0  0  0  0  0
   -7.4917    1.9381   26.3986 C   0  0  0  0  0  0  0  0  0  0  0  0
   -9.7695    5.0306   28.1322 C   0  0  0  0  0  0  0  0  0  0  0  0
   -9.5934    2.8183   27.3258 C   0  0  0  0  0  0  0  0  0  0  0  0
  -10.3316    3.8310   27.9096 C   0  0  0  0  0  0  0  0  0  0  0  0
   -6.5728    1.3952   27.3101 N   0  0  0  0  0  0  0  0  0  0  0  0
   -6.2122    0.2118   27.5755 C   0  0  1  0  0  0  0  0  0  0  0  0
   -6.8758   -0.8496   27.2178 C   0  0  0  0  0  0  0  0  0  0  0  0
   -4.7431    0.0975   27.7804 C   0  0  0  0  0  0  0  0  0  0  0  0
   -4.0140    0.9792   28.4131 C   0  0  0  0  0  0  0  0  0  0  0  0
  2  4  1  0
  4  8  1  0
  8  9  1  0
  9 10  1  6
  9 11  1  0
 11 12  1  0
  1  2  2  0
  2  6  1  0
  6  7  2  0
  7  5  1  0
  5  3  2  0
  3  1  1  0
M  END
$$$$
