No_1460-complexes_sdf/6BKW-FPZ/2024-09-17-14-21-01/
     RDKit          3D

 40 44  0  0  0  0  0  0  0  0999 V2000
   -7.7129    4.2099   27.0854 C   0  0  0  0  0  0  0  0  0  0  0  0
   -8.9133    4.4736   27.0998 C   0  0  0  0  0  0  0  0  0  0  0  0
   -9.7135    3.9633   26.0300 C   0  0  0  0  0  0  0  0  0  0  0  0
   -6.8655    4.8824   28.1822 C   0  0  0  0  0  0  0  0  0  0  0  0
  -10.8856    4.5824   25.6430 C   0  0  1  0  0  0  0  0  0  0  0  0
   -7.6664    5.7849   28.7962 N   0  0  0  0  0  0  0  0  0  0  0  0
   -8.8934    5.5511   27.9459 C   0  0  0  0  0  0  0  0  0  0  0  0
  -11.5063    5.2768   26.3361 C   0  0  0  0  0  0  0  0  0  0  0  0
  -10.9813    4.7802   24.1838 C   0  0  0  0  0  0  0  0  0  0  0  0
  -12.1860    4.2257   23.5755 C   0  0  0  0  0  0  0  0  0  0  0  0
  -13.1205    3.8863   24.2673 C   0  0  0  0  0  0  0  0  0  0  0  0
  -13.0487    4.8629   26.5727 C   0  0  0  0  0  0  0  0  0  0  0  0
  -13.8052    4.5444   25.4840 C   0  0  0  0  0  0  0  0  0  0  0  0
   -9.4345    2.6149   25.5993 C   0  0  0  0  0  0  0  0  0  0  0  0
   -9.3823    2.2116   24.5045 N   0  0  0  0  0  0  0  0  0  0  0  0
   -9.0303    0.9239   24.1676 C   0  0  0  0  0  0  0  0  0  0  0  0
   -9.2359    1.5933   26.6187 C   0  0  0  0  0  0  0  0  0  0  0  0
   -8.8514    0.3210   26.3920 C   0  0  0  0  0  0  0  0  0  0  0  0
   -8.5970   -0.6582   27.4276 C   0  0  0  0  0  0  0  0  0  0  0  0
   -8.7796   -0.0150   25.0479 C   0  0  0  0  0  0  0  0  0  0  0  0
   -7.3171   -0.8664   27.8518 C   0  0  0  0  0  0  0  0  0  0  0  0
   -7.0540   -1.7972   28.9159 C   0  0  0  0  0  0  0  0  0  0  0  0
   -5.8030   -1.9547   29.5271 C   0  0  0  0  0  0  0  0  0  0  0  0
   -4.7475   -1.1239   29.0231 C   0  0  0  0  0  0  0  0  0  0  0  0
   -4.9690   -0.1900   28.0051 C   0  0  0  0  0  0  0  0  0  0  0  0
   -6.2278   -0.0001   27.4849 C   0  0  0  0  0  0  0  0  0  0  0  0
   -9.7247   -1.3123   27.9313 C   0  0  0  0  0  0  0  0  0  0  0  0
  -10.8523   -1.6656   27.2648 C   0  0  0  0  0  0  0  0  0  0  0  0
  -10.9449   -2.1512   26.2865 C   0  0  0  0  0  0  0  0  0  0  0  0
  -12.2081   -2.4952   25.6059 C   0  0  0  0  0  0  0  0  0  0  0  0
  -13.3495   -2.0630   26.2108 C   0  0  0  0  0  0  0  0  0  0  0  0
  -13.3025   -1.3959   27.4128 C   0  0  0  0  0  0  0  0  0  0  0  0
  -12.0640   -1.1261   28.0712 C   0  0  0  0  0  0  0  0  0  0  0  0
   -3.3861   -1.2056   29.6763 C   0  0  0  0  0  0  0  0  0  0  0  0
   -3.1809   -0.5190   30.7423 N   0  0  0  0  0  0  0  0  0  0  0  0
   -2.5833   -1.0801   31.8926 C   0  0  1  0  0  0  0  0  0  0  0  0
   -2.7757   -0.3298   33.1424 C   0  0  0  0  0  0  0  0  0  0  0  0
   -3.0524   -2.4921   32.0566 C   0  0  0  0  0  0  0  0  0  0  0  0
   -2.3774   -1.0786   34.3707 C   0  0  0  0  0  0  0  0  0  0  0  0
   -3.2330   -2.2015   34.5489 C   0  0  0  0  0  0  0  0  0  0  0  0
  1  2  1  0
  2  3  2  3
  1  4  1  0
  3  5  1  0
  4  6  2  0
  2  7  1  0
  6  7  1  0
  5  8  1  0
  5  9  1  6
  9 10  1  0
 10 11  2  0
  8 12  2  0
 11 13  1  0
 12 13  1  0
  3 14  1  0
 18 19  1  0
 19 27  1  0
 27 28  1  0
 24 34  1  0
 34 35  1  0
 35 36  1  0
 36 37  1  0
 36 38  1  1
 37 39  1  0
 39 40  1  0
 19 21  1  0
 28 29  2  0
 29 30  1  0
 30 31  2  0
 31 32  1  0
 32 33  2  0
 33 28  1  0
 14 15  2  0
 15 16  1  0
 16 20  2  0
 20 18  1  0
 18 17  2  0
 17 14  1  0
 21 22  2  0
 22 23  1  0
 23 24  2  0
 24 25  1  0
 25 26  2  0
 26 21  1  0
M  END
$$$$
