No_1311-complexes_sdf/6BKW-FPZ/2024-09-17-14-21-01/
     RDKit          3D

 22 23  0  0  0  0  0  0  0  0999 V2000
   -7.9040    3.9820   27.1177 C   0  0  0  0  0  0  0  0  0  0  0  0
   -8.2057    2.8231   26.8733 C   0  0  0  0  0  0  0  0  0  0  0  0
   -8.7695    5.0740   26.7916 C   0  0  0  0  0  0  0  0  0  0  0  0
   -8.4337    6.4678   27.0913 C   0  0  0  0  0  0  0  0  0  0  0  0
   -9.3742    2.4311   26.2346 C   0  0  0  0  0  0  0  0  0  0  0  0
  -10.2395    3.4267   25.8887 C   0  0  0  0  0  0  0  0  0  0  0  0
   -9.9567    4.7548   26.1374 C   0  0  0  0  0  0  0  0  0  0  0  0
   -7.9449    7.5014   26.9590 N   0  0  0  0  0  0  0  0  0  0  0  0
   -7.0811    1.5105   27.3817 Cl  0  0  0  0  0  0  0  0  0  0  0  0
  -11.4953    3.1031   25.1619 C   0  0  0  0  0  0  0  0  0  0  0  0
  -11.3645    2.5257   24.0047 C   0  0  0  0  0  0  0  0  0  0  0  0
  -11.1038    3.0628   23.0328 C   0  0  0  0  0  0  0  0  0  0  0  0
  -10.7241    2.4535   21.7360 C   0  0  0  0  0  0  0  0  0  0  0  0
  -10.6177    1.0593   21.7318 C   0  0  0  0  0  0  0  0  0  0  0  0
  -10.8825    0.3783   22.8660 C   0  0  0  0  0  0  0  0  0  0  0  0
  -11.1544    1.0453   24.0091 C   0  0  0  0  0  0  0  0  0  0  0  0
  -12.7676    3.4091   25.7576 C   0  0  0  0  0  0  0  0  0  0  0  0
  -13.4856    2.5540   26.0737 O   0  0  0  0  0  0  0  0  0  0  0  0
  -13.0601    4.6533   25.8282 O   0  0  0  0  0  0  0  0  0  0  0  0
  -10.7368   -1.0998   22.8092 C   0  0  0  0  0  0  0  0  0  0  0  0
  -10.5903   -1.6905   21.7519 C   0  0  0  0  0  0  0  0  0  0  0  0
  -10.2983   -0.9234   20.4756 C   0  0  0  0  0  0  0  0  0  0  0  0
  3  4  1  0
  4  8  3  0
  2  9  1  0
  6 10  1  0
 10 11  1  0
 10 17  1  0
 17 18  2  0
 17 19  1  0
 15 20  1  0
 20 21  2  3
 21 22  1  0
 11 12  2  0
 12 13  1  0
 13 14  2  0
 14 15  1  0
 15 16  2  0
 16 11  1  0
  1  2  2  0
  2  5  1  0
  5  6  2  0
  6  7  1  0
  7  3  2  0
  3  1  1  0
M  END
$$$$
