No_1577-complexes_sdf/6BKW-FPZ/2024-09-17-14-21-01/
     RDKit          3D

 13 14  0  0  0  0  0  0  0  0999 V2000
   -7.2496    3.8871   27.4508 C   0  0  0  0  0  0  0  0  0  0  0  0
   -7.6161    2.7143   27.1523 C   0  0  0  0  0  0  0  0  0  0  0  0
   -8.6212    2.2239   26.4074 C   0  0  0  0  0  0  0  0  0  0  0  0
   -6.2236    4.3429   28.3592 C   0  0  0  0  0  0  0  0  0  0  0  0
   -9.5004    3.2036   25.9135 C   0  0  0  0  0  0  0  0  0  0  0  0
   -9.2386    4.5882   26.2126 C   0  0  0  0  0  0  0  0  0  0  0  0
   -8.1605    4.9002   27.0001 C   0  0  0  0  0  0  0  0  0  0  0  0
  -10.5911    2.8969   25.0051 C   0  0  0  0  0  0  0  0  0  0  0  0
  -10.3255    2.7821   23.6665 C   0  0  0  0  0  0  0  0  0  0  0  0
  -10.9115    2.6444   22.7002 C   0  0  0  0  0  0  0  0  0  0  0  0
  -12.3263    2.6349   22.7542 C   0  0  0  0  0  0  0  0  0  0  0  0
  -11.8888    2.9812   25.3807 C   0  0  0  0  0  0  0  0  0  0  0  0
  -12.8495    2.8543   24.1850 C   0  0  0  0  0  0  0  0  0  0  0  0
  1  4  1  0
  5  8  1  0
  8  9  2  0
  9 10  1  0
 10 11  2  0
 11 13  1  0
 13 12  2  0
 12  8  1  0
  1  2  2  0
  2  3  1  0
  3  5  2  0
  5  6  1  0
  6  7  2  0
  7  1  1  0
M  END
$$$$
