No_1200-complexes_sdf/6BKW-FPZ/2024-09-17-14-21-01/
     RDKit          3D

 27 30  0  0  0  0  0  0  0  0999 V2000
   -7.9040    3.9820   27.1177 C   0  0  0  0  0  0  0  0  0  0  0  0
   -7.8663    4.8694   27.9238 C   0  0  0  0  0  0  0  0  0  0  0  0
   -9.0501    3.8017   26.2617 C   0  0  0  0  0  0  0  0  0  0  0  0
  -10.0189    4.7608   26.3707 C   0  0  0  0  0  0  0  0  0  0  0  0
   -8.6973    5.9722   27.8968 C   0  0  0  0  0  0  0  0  0  0  0  0
   -9.8216    5.8946   27.1241 C   0  0  0  0  0  0  0  0  0  0  0  0
   -9.1437    2.6293   25.4175 C   0  0  0  0  0  0  0  0  0  0  0  0
   -8.6170    1.4258   25.8177 C   0  0  0  0  0  0  0  0  0  0  0  0
   -8.6844    0.3194   24.9788 C   0  0  0  0  0  0  0  0  0  0  0  0
   -9.3359    0.4939   23.7289 C   0  0  0  0  0  0  0  0  0  0  0  0
   -9.8521    1.7195   23.3158 C   0  0  0  0  0  0  0  0  0  0  0  0
   -9.7240    2.7821   24.1593 C   0  0  0  0  0  0  0  0  0  0  0  0
   -9.3422   -0.7896   22.9344 C   0  0  0  0  0  0  0  0  0  0  0  0
  -10.2902   -1.0609   22.1655 C   0  0  0  0  0  0  0  0  0  0  0  0
  -11.4696   -0.2135   22.1259 C   0  0  0  0  0  0  0  0  0  0  0  0
  -11.4062    1.1754   22.2053 C   0  0  0  0  0  0  0  0  0  0  0  0
  -10.9295    1.6820   22.3498 N   0  0  0  0  0  0  0  0  0  0  0  0
  -10.4763    2.7749   21.5268 C   0  0  0  0  0  0  0  0  0  0  0  0
  -11.1912    4.0274   21.7116 C   0  0  0  0  0  0  0  0  0  0  0  0
  -12.7620    1.6432   22.1111 N   0  0  0  0  0  0  0  0  0  0  0  0
  -13.7502    0.9115   22.3672 C   0  0  0  0  0  0  0  0  0  0  0  0
  -12.4966   -0.9962   21.6639 C   0  0  0  0  0  0  0  0  0  0  0  0
  -13.8162   -0.3689   21.8153 C   0  0  0  0  0  0  0  0  0  0  0  0
  -14.9983   -1.1775   21.6757 C   0  0  0  0  0  0  0  0  0  0  0  0
  -15.1480   -1.8882   20.7344 C   0  0  0  0  0  0  0  0  0  0  0  0
  -14.2258   -1.9679   19.7254 C   0  0  0  0  0  0  0  0  0  0  0  0
  -14.3377   -2.9035   18.5764 C   0  0  0  0  0  0  0  0  0  0  0  0
  3  7  1  0
 10 13  1  0
 13 14  2  0
 14 15  1  0
 11 17  1  0
 16 17  1  0
 17 18  1  0
 18 19  1  0
 23 24  1  0
 24 25  2  3
 25 26  1  0
 26 27  2  0
 15 16  2  0
 16 20  1  0
 20 21  2  0
 21 23  1  0
 23 22  2  0
 22 15  1  0
  1  2  2  0
  2  5  1  0
  5  6  2  0
  6  4  1  0
  4  3  2  0
  3  1  1  0
  7  8  2  0
  8  9  1  0
  9 10  2  0
 10 11  1  0
 11 12  2  0
 12  7  1  0
M  END
$$$$
