No_1275-complexes_sdf/6BKW-FPZ/2024-09-17-14-21-01/
     RDKit          3D

 18 19  0  0  0  0  0  0  0  0999 V2000
   -7.7129    4.2099   27.0854 C   0  0  0  0  0  0  0  0  0  0  0  0
   -8.2112    3.0637   26.9225 C   0  0  0  0  0  0  0  0  0  0  0  0
   -8.5108    5.3904   26.9436 C   0  0  0  0  0  0  0  0  0  0  0  0
   -9.7256    5.1955   26.3518 C   0  0  0  0  0  0  0  0  0  0  0  0
   -9.4995    2.8258   26.4878 C   0  0  0  0  0  0  0  0  0  0  0  0
  -10.2542    3.9691   26.2055 C   0  0  0  0  0  0  0  0  0  0  0  0
   -7.9135    6.7086   27.1885 C   0  0  2  0  0  0  0  0  0  0  0  0
   -7.3624    1.8198   27.2561 C   0  0  0  0  0  0  0  0  0  0  0  0
   -6.1430    1.9815   27.7391 N   0  0  0  0  0  0  0  0  0  0  0  0
   -5.4037    0.8311   28.0331 C   0  0  0  0  0  0  0  0  0  0  0  0
   -4.0620    0.9254   28.6197 C   0  0  0  0  0  0  0  0  0  0  0  0
   -5.9490   -0.4248   27.7354 C   0  0  0  0  0  0  0  0  0  0  0  0
   -8.0835    0.7728   27.1500 O   0  0  0  0  0  0  0  0  0  0  0  0
   -5.0834   -1.5225   28.1442 C   0  0  0  0  0  0  0  0  0  0  0  0
   -3.3381   -0.1246   29.0000 C   0  0  0  0  0  0  0  0  0  0  0  0
   -3.8426   -1.3662   28.7841 C   0  0  0  0  0  0  0  0  0  0  0  0
   -6.9344    6.8708   27.9121 N   0  0  0  0  0  0  0  0  0  0  0  0
   -8.4837    7.7537   26.6744 F   0  0  0  0  0  0  0  0  0  0  0  0
  3  7  1  0
  2  8  1  0
  8  9  1  0
  8 13  2  0
  7 17  1  1
  7 18  1  0
  9 10  1  0
 10 11  2  0
 11 15  1  0
 15 16  2  0
 16 14  1  0
 14 12  2  0
 12 10  1  0
  1  2  2  0
  2  5  1  0
  5  6  2  0
  6  4  1  0
  4  3  2  0
  3  1  1  0
M  END
$$$$
