No_1343-complexes_sdf/6BKW-FPZ/2024-09-17-14-21-01/
     RDKit          3D

 25 27  0  0  0  0  0  0  0  0999 V2000
   -7.7129    4.2099   27.0854 C   0  0  0  0  0  0  0  0  0  0  0  0
   -8.2112    3.0637   26.9225 C   0  0  0  0  0  0  0  0  0  0  0  0
   -7.5138    1.9223   27.4249 C   0  0  0  0  0  0  0  0  0  0  0  0
   -8.5309    5.4147   26.8151 C   0  0  0  0  0  0  0  0  0  0  0  0
   -9.6817    5.2393   26.1100 C   0  0  0  0  0  0  0  0  0  0  0  0
  -10.1032    3.9957   25.8534 C   0  0  0  0  0  0  0  0  0  0  0  0
   -9.4034    2.8430   26.2573 C   0  0  0  0  0  0  0  0  0  0  0  0
   -7.9625    0.5664   27.2655 C   0  0  0  0  0  0  0  0  0  0  0  0
   -7.2659   -0.4693   27.7107 C   0  0  0  0  0  0  0  0  0  0  0  0
   -5.9834   -0.2970   28.2458 C   0  0  0  0  0  0  0  0  0  0  0  0
   -5.4105    0.9962   28.2566 C   0  0  0  0  0  0  0  0  0  0  0  0
   -6.0959    2.0397   27.8447 C   0  0  0  0  0  0  0  0  0  0  0  0
   -7.9861    6.7646   27.0883 C   0  0  0  0  0  0  0  0  0  0  0  0
   -8.6367    7.8161   26.7557 O   0  0  0  0  0  0  0  0  0  0  0  0
   -6.8647    6.8367   27.7689 O   0  0  0  0  0  0  0  0  0  0  0  0
   -5.1858   -1.4550   28.7510 C   0  0  0  0  0  0  0  0  0  0  0  0
   -5.5343   -2.4566   28.9118 O   0  0  0  0  0  0  0  0  0  0  0  0
   -3.8937   -1.1687   29.0810 O   0  0  0  0  0  0  0  0  0  0  0  0
  -11.3747    3.8385   25.0789 C   0  0  0  0  0  0  0  0  0  0  0  0
  -11.2852    3.1989   23.8618 C   0  0  0  0  0  0  0  0  0  0  0  0
  -10.7882    2.1881   23.5655 C   0  0  0  0  0  0  0  0  0  0  0  0
  -10.6899    1.6345   22.2317 C   0  0  0  0  0  0  0  0  0  0  0  0
  -11.1820    2.4177   21.1944 C   0  0  0  0  0  0  0  0  0  0  0  0
  -11.7676    4.0088   22.6667 C   0  0  0  0  0  0  0  0  0  0  0  0
  -11.6934    3.6293   21.4365 C   0  0  0  0  0  0  0  0  0  0  0  0
  2  3  1  0
  4 13  1  0
 13 14  1  0
 13 15  2  0
 10 16  1  0
 16 17  2  0
 16 18  1  0
  6 19  1  0
 19 20  1  0
  3  8  2  0
  8  9  1  0
  9 10  2  0
 10 11  1  0
 11 12  2  0
 12  3  1  0
  1  2  2  0
  2  7  1  0
  7  6  2  0
  6  5  1  0
  5  4  2  0
  4  1  1  0
 20 21  2  0
 21 22  1  0
 22 23  2  0
 23 25  1  0
 25 24  2  0
 24 20  1  0
M  END
$$$$
