No_1681-complexes_sdf/6BKW-FPZ/2024-09-17-14-21-01/
     RDKit          3D

 20 20  0  0  0  0  0  0  0  0999 V2000
   -7.7129    4.2099   27.0854 C   0  0  0  0  0  0  0  0  0  0  0  0
   -8.9133    4.4736   27.0998 C   0  0  0  0  0  0  0  0  0  0  0  0
   -9.4643    5.5426   27.7628 C   0  0  0  0  0  0  0  0  0  0  0  0
   -7.2009    2.9448   26.6134 C   0  0  0  0  0  0  0  0  0  0  0  0
   -8.1561    1.9740   26.2823 C   0  0  0  0  0  0  0  0  0  0  0  0
   -9.4727    2.3033   26.2264 C   0  0  0  0  0  0  0  0  0  0  0  0
   -9.8678    3.4802   26.6699 C   0  0  0  0  0  0  0  0  0  0  0  0
   -7.6242    0.6647   25.8649 C   0  0  0  0  0  0  0  0  0  0  0  0
   -7.8307    0.2623   24.7756 O   0  0  0  0  0  0  0  0  0  0  0  0
   -6.9399   -0.0342   26.7942 O   0  0  0  0  0  0  0  0  0  0  0  0
   -6.3230   -1.1458   26.6704 C   0  0  1  0  0  0  0  0  0  0  0  0
   -5.0410   -1.0672   26.5811 C   0  0  1  0  0  0  0  0  0  0  0  0
   -4.4345    0.0217   27.1913 C   0  0  1  0  0  0  0  0  0  0  0  0
   -3.2961   -0.0830   28.2418 Cl  0  0  0  0  0  0  0  0  0  0  0  0
   -4.2877   -2.1439   27.1806 O   0  0  0  0  0  0  0  0  0  0  0  0
   -4.0472    1.1346   26.2702 N   0  0  0  0  0  0  0  0  0  0  0  0
   -7.1632   -2.2448   26.8434 C   0  0  0  0  0  0  0  0  0  0  0  0
   -7.7707   -2.4224   28.1900 C   0  0  0  0  0  0  0  0  0  0  0  0
   -8.0957   -3.5565   28.5904 C   0  0  0  0  0  0  0  0  0  0  0  0
   -7.8021   -4.6077   28.0052 C   0  0  0  0  0  0  0  0  0  0  0  0
  5  8  1  0
  8  9  2  0
  8 10  1  0
 10 11  1  0
 11 12  1  0
 12 13  1  0
 13 14  1  0
 12 15  1  1
 13 16  1  6
 11 17  1  1
 17 18  1  0
 18 19  2  3
 19 20  1  0
  3  2  1  0
  1  2  2  0
  2  7  1  0
  7  6  2  0
  6  5  1  0
  5  4  2  0
  4  1  1  0
M  END
$$$$
