No_1945-complexes_sdf/6BKW-FPZ/2024-09-17-14-21-01/
     RDKit          3D

  8  8  0  0  0  0  0  0  0  0999 V2000
   -7.9040    3.9820   27.1177 C   0  0  0  0  0  0  0  0  0  0  0  0
   -9.0711    4.3164   27.0630 C   0  0  0  0  0  0  0  0  0  0  0  0
   -9.5294    5.4517   27.7215 C   0  0  0  0  0  0  0  0  0  0  0  0
   -9.9845    3.5634   26.2189 C   0  0  0  0  0  0  0  0  0  0  0  0
  -10.7684    4.0785   25.5182 C   0  0  0  0  0  0  0  0  0  0  0  0
   -7.4478    2.6253   26.8734 C   0  0  0  0  0  0  0  0  0  0  0  0
   -8.3462    1.8107   26.1907 C   0  0  0  0  0  0  0  0  0  0  0  0
   -9.5143    2.3373   25.7549 C   0  0  0  0  0  0  0  0  0  0  0  0
  2  3  1  0
  4  5  1  0
  1  2  2  0
  2  4  1  0
  4  8  2  0
  8  7  1  0
  7  6  2  0
  6  1  1  0
M  END
$$$$
