No_1499-complexes_sdf/6BKW-FPZ/2024-09-17-14-21-01/
     RDKit          3D

 37 41  0  0  0  0  0  0  0  0999 V2000
   -7.7129    4.2099   27.0854 C   0  0  0  0  0  0  0  0  0  0  0  0
   -7.7814    5.1722   27.8972 C   0  0  0  0  0  0  0  0  0  0  0  0
   -8.7889    3.2468   27.2220 C   0  0  0  0  0  0  0  0  0  0  0  0
   -9.8927    3.4443   27.8449 C   0  0  0  0  0  0  0  0  0  0  0  0
   -9.0268    5.6720   28.5154 C   0  0  0  0  0  0  0  0  0  0  0  0
  -10.0572    4.7324   28.5632 C   0  0  0  0  0  0  0  0  0  0  0  0
   -8.6015    1.8826   26.5580 C   0  0  0  0  0  0  0  0  0  0  0  0
   -9.2628    1.5236   25.5427 C   0  0  0  0  0  0  0  0  0  0  0  0
   -8.9816    0.4112   24.8011 C   0  0  0  0  0  0  0  0  0  0  0  0
   -7.5772    1.0508   27.0927 C   0  0  0  0  0  0  0  0  0  0  0  0
   -7.2452   -0.1284   26.4666 C   0  0  0  0  0  0  0  0  0  0  0  0
   -6.2885   -0.9973   27.0290 C   0  0  0  0  0  0  0  0  0  0  0  0
   -7.9721   -0.4247   25.3352 C   0  0  0  0  0  0  0  0  0  0  0  0
   -5.7608   -0.9091   28.1554 N   0  0  0  0  0  0  0  0  0  0  0  0
   -4.8494    0.0568   28.4519 C   0  0  0  0  0  0  0  0  0  0  0  0
   -4.3248    1.0387   27.7367 C   0  0  0  0  0  0  0  0  0  0  0  0
   -4.3190   -0.0080   29.9256 C   0  0  0  0  0  0  0  0  0  0  0  0
   -4.8077   -0.9332   30.8342 C   0  0  2  0  0  0  0  0  0  0  0  0
   -6.2217   -1.7608   29.2273 C   0  0  0  0  0  0  0  0  0  0  0  0
   -5.7579   -1.7526   30.4702 C   0  0  0  0  0  0  0  0  0  0  0  0
   -5.7676   -1.9037   26.3075 O   0  0  0  0  0  0  0  0  0  0  0  0
   -4.2074   -0.8314   32.1989 C   0  0  0  0  0  0  0  0  0  0  0  0
   -3.7066   -1.8342   32.6646 O   0  0  0  0  0  0  0  0  0  0  0  0
   -3.0794   -1.7336   33.7719 C   0  0  2  0  0  0  0  0  0  0  0  0
   -1.7378   -2.0238   33.7178 C   0  0  0  0  0  0  0  0  0  0  0  0
   -1.2042   -2.7157   34.4797 C   0  0  0  0  0  0  0  0  0  0  0  0
   -1.6093   -2.8221   35.8842 C   0  0  0  0  0  0  0  0  0  0  0  0
   -2.9527   -2.4494   36.0817 C   0  0  0  0  0  0  0  0  0  0  0  0
   -3.7599   -2.4095   34.9016 C   0  0  1  0  0  0  0  0  0  0  0  0
   -4.9788   -1.6891   35.1746 O   0  0  0  0  0  0  0  0  0  0  0  0
   -6.1923   -2.2523   35.0362 C   0  0  0  0  0  0  0  0  0  0  0  0
   -4.0584   -3.7651   34.4842 C   0  0  0  0  0  0  0  0  0  0  0  0
   -5.0086   -4.3678   34.9423 C   0  0  0  0  0  0  0  0  0  0  0  0
   -6.3295   -3.5266   34.8114 C   0  0  0  0  0  0  0  0  0  0  0  0
   -7.5152   -4.1288   34.4408 C   0  0  0  0  0  0  0  0  0  0  0  0
   -7.9984   -5.0996   34.7376 C   0  0  0  0  0  0  0  0  0  0  0  0
   -9.3158   -5.6244   34.2977 C   0  0  0  0  0  0  0  0  0  0  0  0
  3  7  1  0
 11 12  1  0
 12 14  1  0
 14 15  1  0
 15 16  1  0
 15 17  1  0
 14 19  1  0
 18 20  1  0
 19 20  1  0
 12 21  2  0
 18 22  1  1
 22 23  1  0
 24 23  1  6
 24 25  1  0
 26 27  1  0
 24 29  1  0
 29 28  1  1
 29 30  1  0
 30 31  1  0
 29 32  1  0
 32 33  2  0
 31 34  2  0
 33 34  1  0
 34 35  1  0
 35 36  2  3
 36 37  1  0
 17 18  1  0
 25 26  1  0
 27 28  1  0
  1  2  2  0
  2  5  1  0
  5  6  2  0
  6  4  1  0
  4  3  2  0
  3  1  1  0
  7  8  2  0
  8  9  1  0
  9 13  2  0
 13 11  1  0
 11 10  2  0
 10  7  1  0
M  END
$$$$
