No_1950-complexes_sdf/6BKW-FPZ/2024-09-17-14-21-01/
     RDKit          3D

 21 22  0  0  0  0  0  0  0  0999 V2000
   -7.7129    4.2099   27.0854 C   0  0  0  0  0  0  0  0  0  0  0  0
   -7.7814    5.1722   27.8972 C   0  0  0  0  0  0  0  0  0  0  0  0
   -8.8255    3.2789   27.1191 C   0  0  0  0  0  0  0  0  0  0  0  0
   -8.7530    2.0643   26.3119 C   0  0  0  0  0  0  0  0  0  0  0  0
   -7.6193    1.3092   26.4290 C   0  0  0  0  0  0  0  0  0  0  0  0
   -7.5545    0.0972   25.6919 C   0  0  0  0  0  0  0  0  0  0  0  0
   -9.9829    3.6717   27.8130 C   0  0  0  0  0  0  0  0  0  0  0  0
  -10.0391    4.8825   28.5802 C   0  0  0  0  0  0  0  0  0  0  0  0
   -8.9186    5.7067   28.5614 C   0  0  1  0  0  0  0  0  0  0  0  0
  -11.1930    5.1901   29.0280 O   0  0  0  0  0  0  0  0  0  0  0  0
  -10.6337    4.0312   28.7749 Cl  0  0  0  0  0  0  0  0  0  0  0  0
   -8.8348    6.8263   29.0693 F   0  0  0  0  0  0  0  0  0  0  0  0
   -9.0188    6.4458   27.8011 O   0  0  0  0  0  0  0  0  0  0  0  0
  -11.0429    2.8959   26.8364 C   0  0  0  0  0  0  0  0  0  0  0  0
   -8.4934   -0.0634   24.7286 C   0  0  0  0  0  0  0  0  0  0  0  0
   -9.5756    1.5902   25.3192 C   0  0  0  0  0  0  0  0  0  0  0  0
   -9.4021    0.7027   24.4799 C   0  0  0  0  0  0  0  0  0  0  0  0
  -10.8421    1.8972   25.9302 C   0  0  0  0  0  0  0  0  0  0  0  0
   -8.7807    7.7194   27.3299 C   0  0  0  0  0  0  0  0  0  0  0  0
   -9.1777    7.5603   25.9810 F   0  0  0  0  0  0  0  0  0  0  0  0
   -7.3609    7.9208   27.0314 F   0  0  0  0  0  0  0  0  0  0  0  0
  1  2  2  3
  1  3  1  0
  7  8  1  0
  2  9  1  0
  8 10  2  0
  8 11  1  0
  9 12  1  1
  9 13  1  0
 13 19  1  0
 19 20  1  0
 19 21  1  0
  3  4  2  0
 16 18  2  0
 18 14  1  0
 14  7  2  0
  7  3  1  0
  4  5  1  0
  5  6  2  0
  6 15  1  0
 15 17  2  0
 17 16  1  0
 16  4  1  0
M  END
$$$$
