No_1835-complexes_sdf/6BKW-FPZ/2024-09-17-14-21-01/
     RDKit          3D

 15 16  0  0  0  0  0  0  0  0999 V2000
   -7.2496    3.8871   27.4508 C   0  0  0  0  0  0  0  0  0  0  0  0
   -7.9379    4.9063   27.8518 C   0  0  0  0  0  0  0  0  0  0  0  0
   -9.3376    4.8647   27.7795 C   0  0  0  0  0  0  0  0  0  0  0  0
   -7.8544    2.6294   27.0414 C   0  0  0  0  0  0  0  0  0  0  0  0
   -9.2852    2.6570   27.0666 C   0  0  0  0  0  0  0  0  0  0  0  0
  -10.0126    3.7528   27.4890 C   0  0  0  0  0  0  0  0  0  0  0  0
  -10.1279    1.4820   26.7580 C   0  0  0  0  0  0  0  0  0  0  0  0
  -11.0447    1.1402   27.3554 C   0  0  0  0  0  0  0  0  0  0  0  0
  -11.8530    2.2434   28.0993 C   0  0  0  0  0  0  0  0  0  0  0  0
  -11.3309    3.5136   28.0632 C   0  0  0  0  0  0  0  0  0  0  0  0
   -7.2943    6.0903   28.0819 O   0  0  0  0  0  0  0  0  0  0  0  0
  -13.2358    1.9698   28.5979 C   0  0  0  0  0  0  0  0  0  0  0  0
  -13.7441    2.7412   29.3416 N   0  0  0  0  0  0  0  0  0  0  0  0
  -14.4260    3.0198   30.1025 C   0  0  0  0  0  0  0  0  0  0  0  0
  -14.7250    4.2750   30.8207 C   0  0  0  0  0  0  0  0  0  0  0  0
  2 11  1  0
  9 12  1  0
 12 13  1  0
 13 14  1  0
 14 15  2  0
  6 10  1  0
 10  9  2  0
  9  8  1  0
  8  7  2  0
  7  5  1  0
  1  2  2  0
  2  3  1  0
  3  6  2  0
  6  5  1  0
  5  4  2  0
  4  1  1  0
M  END
$$$$
