No_1204-complexes_sdf/6BKW-FPZ/2024-09-17-14-21-01/
     RDKit          3D

 24 27  0  0  0  0  0  0  0  0999 V2000
   -7.7129    4.2099   27.0854 C   0  0  2  0  0  0  0  0  0  0  0  0
   -7.7814    5.1722   27.8972 C   0  0  0  0  0  0  0  0  0  0  0  0
   -8.8998    3.8713   26.3707 C   0  0  2  0  0  0  0  0  0  0  0  0
   -9.1401    2.5906   25.9433 C   0  0  0  0  0  0  0  0  0  0  0  0
   -8.7502    6.2483   27.7275 C   0  0  0  0  0  0  0  0  0  0  0  0
  -10.0339    2.3357   24.9097 C   0  0  0  0  0  0  0  0  0  0  0  0
  -10.7478    3.4936   24.4302 C   0  0  0  0  0  0  0  0  0  0  0  0
  -10.4101    4.7846   24.8361 C   0  0  0  0  0  0  0  0  0  0  0  0
   -9.4051    4.9704   25.7769 C   0  0  1  0  0  0  0  0  0  0  0  0
   -9.5992    6.1568   26.6221 C   0  0  0  0  0  0  0  0  0  0  0  0
   -6.9150    3.0032   27.6415 C   0  0  0  0  0  0  0  0  0  0  0  0
   -7.0924    1.6868   27.1525 C   0  0  0  0  0  0  0  0  0  0  0  0
   -8.2497    1.4669   26.2530 C   0  0  0  0  0  0  0  0  0  0  0  0
   -6.2668    0.6242   27.5647 C   0  0  0  0  0  0  0  0  0  0  0  0
   -6.5529   -0.6350   27.4848 N   0  0  0  0  0  0  0  0  0  0  0  0
   -4.9059    0.9108   28.1101 C   0  0  0  0  0  0  0  0  0  0  0  0
   -4.4571    0.1836   28.6723 F   0  0  0  0  0  0  0  0  0  0  0  0
   -4.4791    2.1526   27.8792 F   0  0  0  0  0  0  0  0  0  0  0  0
   -6.8690   -1.4136   28.4705 C   0  0  0  0  0  0  0  0  0  0  0  0
   -7.5421   -2.6603   28.2694 C   0  0  0  0  0  0  0  0  0  0  0  0
   -8.1553   -3.2050   29.2370 C   0  0  0  0  0  0  0  0  0  0  0  0
   -7.8560   -2.9270   30.5929 C   0  0  0  0  0  0  0  0  0  0  0  0
   -6.9774   -1.8564   30.8392 C   0  0  0  0  0  0  0  0  0  0  0  0
   -6.5184   -1.0929   29.8661 C   0  0  0  0  0  0  0  0  0  0  0  0
  1  2  1  1
  1  3  1  0
  3  4  1  6
  2  5  2  0
  4  6  2  0
  6  7  1  0
  7  8  2  0
  3  9  1  0
  8  9  1  0
  5 10  1  0
  9 10  1  1
  1 11  1  0
 11 12  2  0
  4 13  1  0
 12 13  1  0
 12 14  1  0
 14 15  2  3
 14 16  1  0
 16 17  1  0
 16 18  1  0
 15 19  1  0
 19 20  1  0
 20 21  1  0
 21 22  2  0
 22 23  1  0
 19 24  1  0
 23 24  2  0
M  END
$$$$
