No_1079-complexes_sdf/6BKW-FPZ/2024-09-17-14-21-01/
     RDKit          3D

 22 24  0  0  0  0  0  0  0  0999 V2000
   -7.9040    3.9820   27.1177 C   0  0  0  0  0  0  0  0  0  0  0  0
   -8.2057    2.8231   26.8733 C   0  0  0  0  0  0  0  0  0  0  0  0
   -9.2962    2.4021   26.1155 C   0  0  0  0  0  0  0  0  0  0  0  0
   -8.7358    5.0662   26.5917 C   0  0  0  0  0  0  0  0  0  0  0  0
   -9.7618    4.7023   25.7546 C   0  0  0  0  0  0  0  0  0  0  0  0
  -10.0066    3.4105   25.4922 C   0  0  0  0  0  0  0  0  0  0  0  0
   -8.3943    6.4760   26.8801 C   0  0  0  0  0  0  0  0  0  0  0  0
   -8.5947    7.4080   26.1130 N   0  0  0  0  0  0  0  0  0  0  0  0
   -7.3576    6.4978   27.7085 F   0  0  0  0  0  0  0  0  0  0  0  0
   -7.3622    1.6593   27.4744 C   0  0  0  0  0  0  0  0  0  0  0  0
   -6.0120    1.9114   27.7820 C   0  0  0  0  0  0  0  0  0  0  0  0
   -5.1947    0.7662   28.1224 C   0  0  0  0  0  0  0  0  0  0  0  0
   -5.7369   -0.4781   28.1199 C   0  0  0  0  0  0  0  0  0  0  0  0
   -7.7133    0.3088   27.3917 C   0  0  0  0  0  0  0  0  0  0  0  0
   -7.0255   -0.6742   27.8093 C   0  0  0  0  0  0  0  0  0  0  0  0
   -4.8612   -1.5740   28.6559 C   0  0  0  0  0  0  0  0  0  0  0  0
   -3.7301   -1.5439   28.4210 C   0  0  0  0  0  0  0  0  0  0  0  0
   -2.9697   -0.2047   28.2852 C   0  0  0  0  0  0  0  0  0  0  0  0
   -3.7590    0.9332   27.9421 C   0  0  0  0  0  0  0  0  0  0  0  0
   -7.6580   -1.9730   27.9044 C   0  0  0  0  0  0  0  0  0  0  0  0
   -7.6489   -2.5981   28.7087 C   0  0  0  0  0  0  0  0  0  0  0  0
   -8.1133   -4.0107   28.7786 C   0  0  0  0  0  0  0  0  0  0  0  0
  4  7  1  0
  7  8  2  0
  7  9  1  0
  2 10  1  0
 15 20  1  0
 20 21  2  3
 21 22  1  0
  1  2  2  0
  2  3  1  0
  3  6  2  0
  6  5  1  0
  5  4  2  0
  4  1  1  0
 10 11  2  0
 11 12  1  0
 13 15  1  0
 15 14  2  0
 14 10  1  0
 12 13  2  0
 13 16  1  0
 16 17  2  0
 17 18  1  0
 18 19  2  0
 19 12  1  0
M  END
$$$$
