No_1624-complexes_sdf/6BKW-FPZ/2024-09-17-14-21-01/
     RDKit          3D

 12 13  0  0  0  0  0  0  0  0999 V2000
   -7.2496    3.8871   27.4508 C   0  0  0  0  0  0  0  0  0  0  0  0
   -8.5096    4.0291   27.2770 C   0  0  0  0  0  0  0  0  0  0  0  0
   -9.3502    2.8685   26.8763 C   0  0  0  0  0  0  0  0  0  0  0  0
   -6.4573    5.0085   27.9854 C   0  0  0  0  0  0  0  0  0  0  0  0
   -9.0329    5.3340   27.4341 C   0  0  0  0  0  0  0  0  0  0  0  0
   -8.3409    6.4303   27.7532 C   0  0  0  0  0  0  0  0  0  0  0  0
   -7.0406    6.2435   28.0566 C   0  0  0  0  0  0  0  0  0  0  0  0
   -8.8197    1.6406   26.7967 C   0  0  0  0  0  0  0  0  0  0  0  0
   -9.6030    0.4992   26.5010 C   0  0  0  0  0  0  0  0  0  0  0  0
  -10.9922    0.6985   26.4082 C   0  0  0  0  0  0  0  0  0  0  0  0
  -10.7528    2.8368   26.8051 C   0  0  0  0  0  0  0  0  0  0  0  0
  -11.5292    1.8323   26.6532 C   0  0  0  0  0  0  0  0  0  0  0  0
  2  3  1  0
  3  8  2  0
  8  9  1  0
  9 10  2  0
 10 12  1  0
 12 11  2  0
 11  3  1  0
  1  2  2  0
  2  5  1  0
  5  6  2  0
  6  7  1  0
  7  4  2  0
  4  1  1  0
M  END
$$$$
