No_1913-complexes_sdf/6BKW-FPZ/2024-09-17-14-21-01/
     RDKit          3D

 19 20  0  0  0  0  0  0  0  0999 V2000
   -7.9040    3.9820   27.1177 C   0  0  0  0  0  0  0  0  0  0  0  0
   -9.0711    4.3164   27.0630 C   0  0  1  0  0  0  0  0  0  0  0  0
   -9.5294    5.4517   27.7215 C   0  0  0  0  0  0  0  0  0  0  0  0
   -9.9845    3.5634   26.2189 C   0  0  0  0  0  0  0  0  0  0  0  0
  -10.7684    4.0785   25.5182 C   0  0  0  0  0  0  0  0  0  0  0  0
   -7.3309    3.6529   28.2114 N   0  0  0  0  0  0  0  0  0  0  0  0
  -11.6364    3.3201   24.7075 C   0  0  0  0  0  0  0  0  0  0  0  0
  -12.5489    3.9574   23.8214 C   0  0  0  0  0  0  0  0  0  0  0  0
  -13.5867    3.3358   23.2974 C   0  0  0  0  0  0  0  0  0  0  0  0
  -13.6251    1.9769   23.3570 C   0  0  0  0  0  0  0  0  0  0  0  0
  -12.7095    1.2981   24.0683 C   0  0  0  0  0  0  0  0  0  0  0  0
  -11.7525    1.9764   24.8383 C   0  0  0  0  0  0  0  0  0  0  0  0
   -5.9062    3.2154   28.0119 C   0  0  0  0  0  0  0  0  0  0  0  0
   -5.6414    1.7580   28.1137 C   0  0  0  0  0  0  0  0  0  0  0  0
   -4.3485    1.2966   28.1443 C   0  0  0  0  0  0  0  0  0  0  0  0
   -4.1007   -0.0491   27.8512 C   0  0  0  0  0  0  0  0  0  0  0  0
   -5.1760   -0.8646   27.4925 C   0  0  0  0  0  0  0  0  0  0  0  0
   -6.5735    0.8450   27.9569 C   0  0  0  0  0  0  0  0  0  0  0  0
   -6.4392   -0.3893   27.5799 C   0  0  0  0  0  0  0  0  0  0  0  0
  1  2  1  0
  2  3  1  6
  2  4  1  0
  4  5  2  3
  1  6  1  0
  5  7  1  0
  6 13  1  0
 13 14  1  0
 14 15  2  0
 15 16  1  0
 16 17  2  0
 17 19  1  0
 19 18  2  0
 18 14  1  0
  7  8  2  0
  8  9  1  0
  9 10  2  0
 10 11  1  0
 11 12  2  0
 12  7  1  0
M  END
$$$$
