No_1477-complexes_sdf/6BKW-FPZ/2024-09-17-14-21-01/
     RDKit          3D

 20 22  0  0  0  0  0  0  0  0999 V2000
   -7.2496    3.8871   27.4508 C   0  0  0  0  0  0  0  0  0  0  0  0
   -8.5096    4.0291   27.2770 C   0  0  0  0  0  0  0  0  0  0  0  0
   -9.3502    2.8685   26.8763 C   0  0  0  0  0  0  0  0  0  0  0  0
   -6.4573    5.0085   27.9855 C   0  0  0  0  0  0  0  0  0  0  0  0
   -9.1243    5.2674   27.5163 C   0  0  0  0  0  0  0  0  0  0  0  0
   -8.4032    6.3854   27.8703 C   0  0  0  0  0  0  0  0  0  0  0  0
   -7.0896    6.2292   28.0937 C   0  0  0  0  0  0  0  0  0  0  0  0
   -8.7515    1.6383   26.8136 C   0  0  0  0  0  0  0  0  0  0  0  0
   -9.4797    0.4683   26.6113 C   0  0  0  0  0  0  0  0  0  0  0  0
  -10.8885    0.6284   26.5445 C   0  0  0  0  0  0  0  0  0  0  0  0
  -10.7379    2.8668   26.8252 C   0  0  0  0  0  0  0  0  0  0  0  0
  -11.4846    1.7676   26.7396 C   0  0  0  0  0  0  0  0  0  0  0  0
   -8.6181   -0.6690   26.3315 C   0  0  0  0  0  0  0  0  0  0  0  0
   -9.1304   -1.5671   25.7729 F   0  0  0  0  0  0  0  0  0  0  0  0
   -8.2203   -1.2228   27.6216 F   0  0  0  0  0  0  0  0  0  0  0  0
   -7.4321   -0.4248   25.7966 F   0  0  0  0  0  0  0  0  0  0  0  0
  -12.9765    1.8114   26.7420 C   0  0  0  0  0  0  0  0  0  0  0  0
  -13.4646    2.7381   26.8857 N   0  0  0  0  0  0  0  0  0  0  0  0
  -12.8678    3.7030   27.5616 C   0  0  0  0  0  0  0  0  0  0  0  0
  -11.4614    4.0140   27.3091 C   0  0  0  0  0  0  0  0  0  0  0  0
  2  3  1  0
  9 13  1  0
 13 14  1  0
 13 15  1  0
 13 16  1  0
 12 17  2  0
 17 18  1  0
 18 19  2  0
 19 20  1  0
 20 11  2  0
  3  8  2  0
  8  9  1  0
  9 10  2  0
 10 12  1  0
 12 11  1  0
 11  3  1  0
  1  2  2  0
  2  5  1  0
  5  6  2  0
  6  7  1  0
  7  4  2  0
  4  1  1  0
M  END
$$$$
