No_1895-complexes_sdf/6BKW-FPZ/2024-09-17-14-21-01/
     RDKit          3D

 19 21  0  0  0  0  0  0  0  0999 V2000
   -7.9040    3.9820   27.1177 C   0  0  0  0  0  0  0  0  0  0  0  0
   -7.8663    4.8694   27.9238 C   0  0  0  0  0  0  0  0  0  0  0  0
   -9.0491    3.8523   26.2542 C   0  0  0  0  0  0  0  0  0  0  0  0
   -8.7661    5.9491   27.9690 C   0  0  0  0  0  0  0  0  0  0  0  0
   -9.9295    4.8502   26.2323 C   0  0  0  0  0  0  0  0  0  0  0  0
   -9.8077    5.9288   27.0933 C   0  0  0  0  0  0  0  0  0  0  0  0
   -7.0146    2.9513   27.1368 F   0  0  0  0  0  0  0  0  0  0  0  0
   -9.1015    2.7190   25.2776 C   0  0  0  0  0  0  0  0  0  0  0  0
   -8.8197    1.4888   25.6743 C   0  0  0  0  0  0  0  0  0  0  0  0
   -8.7028    0.4751   24.7277 C   0  0  0  0  0  0  0  0  0  0  0  0
   -9.1963    0.7585   23.4238 C   0  0  0  0  0  0  0  0  0  0  0  0
   -9.6640    2.0346   23.0869 C   0  0  0  0  0  0  0  0  0  0  0  0
   -9.5750    3.0314   24.0050 C   0  0  0  0  0  0  0  0  0  0  0  0
   -9.2349   -0.3235   22.3958 C   0  0  0  0  0  0  0  0  0  0  0  0
  -10.0680   -1.3363   22.6029 C   0  0  0  0  0  0  0  0  0  0  0  0
  -10.0570   -2.3273   21.7225 C   0  0  0  0  0  0  0  0  0  0  0  0
   -9.2344   -2.2870   20.5123 C   0  0  0  0  0  0  0  0  0  0  0  0
   -8.3726   -1.2201   20.3813 C   0  0  0  0  0  0  0  0  0  0  0  0
   -8.3014   -0.1911   21.3310 C   0  0  0  0  0  0  0  0  0  0  0  0
  1  7  1  0
  3  8  1  0
 11 14  1  0
 14 15  2  0
 15 16  1  0
 16 17  2  0
 17 18  1  0
 18 19  2  0
 19 14  1  0
  1  2  2  0
  2  4  1  0
  4  6  2  0
  6  5  1  0
  5  3  2  0
  3  1  1  0
  8  9  2  0
  9 10  1  0
 10 11  2  0
 11 12  1  0
 12 13  2  0
 13  8  1  0
M  END
$$$$
