No_1112-complexes_sdf/6BKW-FPZ/2024-09-17-14-21-01/
     RDKit          3D

 30 33  0  0  0  0  0  0  0  0999 V2000
   -7.7129    4.2099   27.0854 C   0  0  0  0  0  0  0  0  0  0  0  0
   -7.7814    5.1722   27.8972 C   0  0  0  0  0  0  0  0  0  0  0  0
   -8.8998    3.8713   26.3707 C   0  0  0  0  0  0  0  0  0  0  0  0
   -8.9563    2.6796   25.5490 C   0  0  0  0  0  0  0  0  0  0  0  0
   -8.8501    6.0071   27.8467 N   0  0  0  0  0  0  0  0  0  0  0  0
   -9.8015    5.7244   27.0279 C   0  0  0  0  0  0  0  0  0  0  0  0
   -9.8983    4.6775   26.3267 C   0  0  0  0  0  0  0  0  0  0  0  0
   -9.8225    2.4547   24.5562 C   0  0  0  0  0  0  0  0  0  0  0  0
  -10.8574    3.5024   24.4472 C   0  0  0  0  0  0  0  0  0  0  0  0
  -10.8840    4.4886   25.3126 C   0  0  0  0  0  0  0  0  0  0  0  0
   -6.7004    5.4781   28.6762 N   0  0  0  0  0  0  0  0  0  0  0  0
  -11.9276    3.4104   23.4674 C   0  0  0  0  0  0  0  0  0  0  0  0
  -11.7730    4.0388   22.3302 N   0  0  0  0  0  0  0  0  0  0  0  0
  -10.8692    3.5574   21.5223 C   0  0  0  0  0  0  0  0  0  0  0  0
  -10.5354    4.3796   20.3480 C   0  0  0  0  0  0  0  0  0  0  0  0
  -10.1980    2.3626   21.5120 C   0  0  0  0  0  0  0  0  0  0  0  0
   -9.6182    3.9301   19.3950 C   0  0  0  0  0  0  0  0  0  0  0  0
  -10.5812    1.3814   22.4427 C   0  0  0  0  0  0  0  0  0  0  0  0
   -9.8892    1.4820   23.7687 C   0  0  1  0  0  0  0  0  0  0  0  0
   -9.0209    0.2504   24.0277 C   0  0  0  0  0  0  0  0  0  0  0  0
   -8.2146   -0.1482   23.3548 C   0  0  0  0  0  0  0  0  0  0  0  0
   -7.2594   -1.1661   23.6782 C   0  0  0  0  0  0  0  0  0  0  0  0
   -7.2695   -1.7215   24.9262 C   0  0  0  0  0  0  0  0  0  0  0  0
   -8.2230   -1.2392   25.8181 C   0  0  0  0  0  0  0  0  0  0  0  0
   -9.0496   -0.2133   25.4702 C   0  0  0  0  0  0  0  0  0  0  0  0
  -11.4720    0.3888   22.1876 C   0  0  0  0  0  0  0  0  0  0  0  0
  -12.4325    0.4858   21.8154 C   0  0  0  0  0  0  0  0  0  0  0  0
  -13.3663   -0.5738   21.4120 C   0  0  0  0  0  0  0  0  0  0  0  0
  -12.9889   -1.8365   21.7003 C   0  0  0  0  0  0  0  0  0  0  0  0
  -11.7354   -2.0749   22.2533 C   0  0  0  0  0  0  0  0  0  0  0  0
  2 11  1  0
  9 12  1  0
 12 13  1  0
 13 14  1  0
 14 15  2  3
 14 16  1  0
 15 17  1  0
 16 18  1  0
  8 19  1  0
 18 19  1  0
 19 20  1  6
 18 26  1  0
 26 27  2  3
 27 28  1  0
 28 29  2  3
 29 30  1  0
  1  2  2  0
  2  5  1  0
  5  6  2  0
  6  7  1  0
  3  1  1  0
 20 21  2  0
 21 22  1  0
 22 23  2  0
 23 24  1  0
 24 25  2  0
 25 20  1  0
  3  4  2  0
  4  8  1  0
  8  9  2  0
  9 10  1  0
 10  7  2  0
  7  3  1  0
M  END
$$$$
