No_12-complexes_sdf/6BKW-FPZ/2024-09-17-14-21-01/
     RDKit          3D

  9  9  0  0  0  0  0  0  0  0999 V2000
   -7.2496    3.8871   27.4508 C   0  0  0  0  0  0  0  0  0  0  0  0
   -8.5096    4.0291   27.2770 C   0  0  0  0  0  0  0  0  0  0  0  0
   -9.2669    5.1645   27.5845 C   0  0  0  0  0  0  0  0  0  0  0  0
   -8.6549    6.1494   27.2495 C   0  0  0  0  0  0  0  0  0  0  0  0
   -7.3258    6.4654   27.5655 C   0  0  0  0  0  0  0  0  0  0  0  0
   -6.6063    5.2474   27.6124 C   0  0  0  0  0  0  0  0  0  0  0  0
   -9.2571    2.6463   27.2696 C   0  0  0  0  0  0  0  0  0  0  0  0
  -10.5282    2.5643   27.4723 C   0  0  0  0  0  0  0  0  0  0  0  0
  -11.0544    1.2358   27.6982 C   0  0  0  0  0  0  0  0  0  0  0  0
  2  7  1  0
  7  8  2  3
  8  9  1  0
  1  2  2  0
  2  3  1  0
  3  4  2  0
  4  5  1  0
  5  6  2  0
  6  1  1  0
M  END
$$$$
