No_1986-complexes_sdf/6BKW-FPZ/2024-09-17-14-21-01/
     RDKit          3D

  7  7  0  0  0  0  0  0  0  0999 V2000
   -7.2496    3.8871   27.4508 C   0  0  0  0  0  0  0  0  0  0  0  0
   -7.6161    2.7143   27.1523 C   0  0  0  0  0  0  0  0  0  0  0  0
   -8.6007    2.2754   27.5344 C   0  0  0  0  0  0  0  0  0  0  0  0
   -8.1723    4.9077   27.9308 C   0  0  0  0  0  0  0  0  0  0  0  0
   -9.4370    4.4191   28.1790 C   0  0  0  0  0  0  0  0  0  0  0  0
   -9.7217    3.1013   28.0011 C   0  0  0  0  0  0  0  0  0  0  0  0
   -7.8187    6.1864   28.1109 N   0  0  0  0  0  0  0  0  0  0  0  0
  4  7  1  0
  1  2  2  0
  2  3  1  0
  3  6  2  0
  6  5  1  0
  5  4  2  0
  4  1  1  0
M  END
$$$$
