No_1821-complexes_sdf/6BKW-FPZ/2024-09-17-14-21-01/
     RDKit          3D

 40 46  0  0  0  0  0  0  0  0999 V2000
   -7.7129    4.2099   27.0854 C   0  0  0  0  0  0  0  0  0  0  0  0
   -7.7814    5.1722   27.8972 C   0  0  0  0  0  0  0  0  0  0  0  0
   -8.8998    3.8713   26.3707 C   0  0  0  0  0  0  0  0  0  0  0  0
   -9.9938    4.6774   26.5446 C   0  0  0  0  0  0  0  0  0  0  0  0
   -8.7789    6.1536   27.9256 C   0  0  0  0  0  0  0  0  0  0  0  0
   -9.9428    5.8398   27.2296 C   0  0  0  0  0  0  0  0  0  0  0  0
   -8.9119    2.6447   25.5685 C   0  0  0  0  0  0  0  0  0  0  0  0
   -9.7335    1.6985   26.0442 C   0  0  0  0  0  0  0  0  0  0  0  0
  -10.6205    1.6022   26.6867 C   0  0  0  0  0  0  0  0  0  0  0  0
  -11.3073    0.3436   27.1897 C   0  0  0  0  0  0  0  0  0  0  0  0
  -12.3012    0.3025   28.1531 C   0  0  0  0  0  0  0  0  0  0  0  0
  -12.7226    1.5301   28.7228 C   0  0  0  0  0  0  0  0  0  0  0  0
  -12.1028    2.7160   28.4787 C   0  0  0  0  0  0  0  0  0  0  0  0
  -11.0173    2.7595   27.6068 C   0  0  0  0  0  0  0  0  0  0  0  0
   -9.3528    0.3670   25.2302 C   0  0  0  0  0  0  0  0  0  0  0  0
   -8.3849    0.3600   24.1408 C   0  0  0  0  0  0  0  0  0  0  0  0
  -10.9886    3.7400   27.1896 N   0  0  0  0  0  0  0  0  0  0  0  0
   -9.9443   -0.8806   25.4696 C   0  0  0  0  0  0  0  0  0  0  0  0
  -10.9757   -0.9307   26.5860 C   0  0  0  0  0  0  0  0  0  0  0  0
   -8.3181   -0.6667   23.2153 C   0  0  0  0  0  0  0  0  0  0  0  0
   -8.8592   -0.3227   21.9152 C   0  0  0  0  0  0  0  0  0  0  0  0
   -8.9082   -1.2939   20.8936 C   0  0  0  0  0  0  0  0  0  0  0  0
   -8.2002   -2.5006   21.0915 C   0  0  0  0  0  0  0  0  0  0  0  0
   -7.5727   -2.7523   22.3032 C   0  0  0  0  0  0  0  0  0  0  0  0
   -7.6177   -1.8507   23.3721 C   0  0  0  0  0  0  0  0  0  0  0  0
   -9.5199    0.7838   21.7048 F   0  0  0  0  0  0  0  0  0  0  0  0
   -6.2802    5.7447   28.7048 Cl  0  0  0  0  0  0  0  0  0  0  0  0
  -11.6041   -2.1622   26.8668 C   0  0  0  0  0  0  0  0  0  0  0  0
  -11.2867   -2.6628   27.9005 N   0  0  0  0  0  0  0  0  0  0  0  0
  -12.0758   -3.1963   28.7470 C   0  0  0  0  0  0  0  0  0  0  0  0
  -11.6066   -3.7061   30.0615 C   0  0  0  0  0  0  0  0  0  0  0  0
  -12.2522   -3.9360   31.1284 C   0  0  0  0  0  0  0  0  0  0  0  0
   -9.9057   -2.6652   28.4877 C   0  0  0  0  0  0  0  0  0  0  0  0
  -10.1320   -3.2498   29.8713 C   0  0  0  0  0  0  0  0  0  0  0  0
  -11.7735   -3.4018   32.3436 C   0  0  0  0  0  0  0  0  0  0  0  0
  -12.3820   -3.6768   33.6226 C   0  0  0  0  0  0  0  0  0  0  0  0
  -11.8758   -3.0331   34.8112 C   0  0  0  0  0  0  0  0  0  0  0  0
  -10.7008   -2.3537   34.6992 C   0  0  0  0  0  0  0  0  0  0  0  0
  -10.0446   -2.1472   33.4882 C   0  0  0  0  0  0  0  0  0  0  0  0
  -10.5567   -2.6144   32.3858 C   0  0  0  0  0  0  0  0  0  0  0  0
  3  7  1  0
  7  8  1  0
 15 16  1  0
  4 17  1  0
 14 17  1  0
 16 20  1  0
 21 26  1  0
  2 27  1  0
 19 28  1  0
 28 29  1  0
 29 30  1  0
 30 31  2  0
 31 32  1  0
 29 33  1  0
 31 34  1  0
 33 34  2  0
 32 35  1  0
 35 36  2  0
 36 37  1  0
 37 38  2  0
 38 39  1  0
 39 40  2  0
 40 35  1  0
 10 11  1  0
 11 12  2  0
 12 13  1  0
 13 14  2  0
 14  9  1  0
 20 21  2  0
 21 22  1  0
 22 23  2  0
 23 24  1  0
 24 25  2  0
 25 20  1  0
  8  9  2  0
  9 10  1  0
 10 19  2  0
 19 18  1  0
 18 15  2  0
 15  8  1  0
  1  2  2  0
  2  5  1  0
  5  6  2  0
  6  4  1  0
  4  3  2  0
  3  1  1  0
M  END
$$$$
