No_1012-complexes_sdf/6BKW-FPZ/2024-09-17-14-21-01/
     RDKit          3D

 40 44  0  0  0  0  0  0  0  0999 V2000
   -7.7129    4.2099   27.0854 C   0  0  0  0  0  0  0  0  0  0  0  0
   -7.7814    5.1722   27.8972 C   0  0  0  0  0  0  0  0  0  0  0  0
   -8.7889    3.2468   27.2220 C   0  0  0  0  0  0  0  0  0  0  0  0
   -8.5940    1.9755   26.6525 C   0  0  0  0  0  0  0  0  0  0  0  0
   -9.4990    1.3567   25.9025 C   0  0  0  0  0  0  0  0  0  0  0  0
   -9.0214    5.8041   28.2929 C   0  0  0  0  0  0  0  0  0  0  0  0
   -9.8944    3.6512   27.9113 C   0  0  0  0  0  0  0  0  0  0  0  0
  -10.0302    4.8964   28.4608 C   0  0  0  0  0  0  0  0  0  0  0  0
   -9.2307    0.1444   25.2955 C   0  0  0  0  0  0  0  0  0  0  0  0
   -7.9858   -0.4240   25.4273 C   0  0  0  0  0  0  0  0  0  0  0  0
   -7.0309    0.1094   26.2658 C   0  0  0  0  0  0  0  0  0  0  0  0
   -7.2674    1.3501   26.8939 C   0  0  0  0  0  0  0  0  0  0  0  0
  -11.0559    2.6754   27.9959 C   0  0  0  0  0  0  0  0  0  0  0  0
  -11.2285    1.6269   28.0002 C   0  0  0  0  0  0  0  0  0  0  0  0
  -12.3881    0.8404   28.3527 C   0  0  0  0  0  0  0  0  0  0  0  0
  -13.2440    1.4154   28.6881 C   0  0  0  0  0  0  0  0  0  0  0  0
  -12.3866    3.2262   28.6573 C   0  0  0  0  0  0  0  0  0  0  0  0
  -13.3828    2.7024   28.9983 C   0  0  0  0  0  0  0  0  0  0  0  0
  -10.2373   -0.4826   24.4465 C   0  0  0  0  0  0  0  0  0  0  0  0
  -10.7520   -1.4636   24.6850 C   0  0  0  0  0  0  0  0  0  0  0  0
  -11.5923   -2.0526   24.5690 C   0  0  1  0  0  0  0  0  0  0  0  0
  -12.6844   -2.3775   24.3400 C   0  0  0  0  0  0  0  0  0  0  0  0
  -13.7157   -1.7347   23.6733 C   0  0  0  0  0  0  0  0  0  0  0  0
  -13.2368   -3.7933   24.7225 C   0  0  0  0  0  0  0  0  0  0  0  0
  -14.9983   -2.0987   23.4715 C   0  0  0  0  0  0  0  0  0  0  0  0
  -12.3815   -4.5250   25.3199 F   0  0  0  0  0  0  0  0  0  0  0  0
  -14.4996   -4.1935   24.4507 C   0  0  0  0  0  0  0  0  0  0  0  0
  -15.3607   -3.3924   23.8574 C   0  0  0  0  0  0  0  0  0  0  0  0
  -10.5850    0.3594   23.2965 C   0  0  0  0  0  0  0  0  0  0  0  0
   -9.6250    0.8469   22.4195 C   0  0  0  0  0  0  0  0  0  0  0  0
   -9.9503    1.7861   21.3950 C   0  0  0  0  0  0  0  0  0  0  0  0
  -11.2815    1.9869   21.1225 C   0  0  0  0  0  0  0  0  0  0  0  0
  -12.2514    1.4475   21.9758 C   0  0  0  0  0  0  0  0  0  0  0  0
  -11.9073    0.7144   23.0735 C   0  0  0  0  0  0  0  0  0  0  0  0
   -9.8381   -2.4937   25.5089 N   0  0  0  0  0  0  0  0  0  0  0  0
  -10.9197   -3.0651   24.1776 F   0  0  0  0  0  0  0  0  0  0  0  0
   -9.8274   -2.3001   26.8920 C   0  0  0  0  0  0  0  0  0  0  0  0
   -9.5226   -3.4272   27.6541 C   0  0  0  0  0  0  0  0  0  0  0  0
   -8.8681   -4.3838   27.3780 C   0  0  0  0  0  0  0  0  0  0  0  0
   -8.5865   -5.5148   28.2127 C   0  0  0  0  0  0  0  0  0  0  0  0
  3  4  1  0
  7 13  1  0
  9 19  1  0
 19 20  2  3
 20 21  1  0
 21 22  1  0
 24 26  1  0
 19 29  1  0
 20 35  1  0
 21 36  1  6
 35 37  1  0
 37 38  2  3
 38 39  1  0
 39 40  2  0
 29 30  2  0
 30 31  1  0
 31 32  2  0
 32 33  1  0
 33 34  2  0
 34 29  1  0
  4  5  2  0
  5  9  1  0
  9 10  2  0
 10 11  1  0
 11 12  2  0
 12  4  1  0
  1  2  2  0
  2  6  1  0
  6  8  2  0
  8  7  1  0
  7  3  2  0
  3  1  1  0
 13 14  2  0
 14 15  1  0
 15 16  2  0
 16 18  1  0
 18 17  2  0
 17 13  1  0
 22 23  2  0
 23 25  1  0
 25 28  2  0
 28 27  1  0
 27 24  2  0
 24 22  1  0
M  END
$$$$
