No_1935-complexes_sdf/6BKW-FPZ/2024-09-17-14-21-01/
     RDKit          3D

 22 23  0  0  0  0  0  0  0  0999 V2000
   -7.9040    3.9820   27.1177 C   0  0  0  0  0  0  0  0  0  0  0  0
   -7.8663    4.8694   27.9238 C   0  0  0  0  0  0  0  0  0  0  0  0
   -9.0806    3.1428   27.1220 C   0  0  1  0  0  0  0  0  0  0  0  0
   -8.9544    1.8782   26.5467 C   0  0  0  0  0  0  0  0  0  0  0  0
   -6.7151    5.8072   27.9111 C   0  0  0  0  0  0  0  0  0  0  0  0
   -7.9998    1.0534   27.0438 C   0  0  0  0  0  0  0  0  0  0  0  0
   -7.7933   -0.2845   26.6226 C   0  0  0  0  0  0  0  0  0  0  0  0
   -8.5674   -0.6240   25.5524 C   0  0  0  0  0  0  0  0  0  0  0  0
   -9.8119    1.3621   25.6276 C   0  0  0  0  0  0  0  0  0  0  0  0
   -9.6133    0.1168   25.0657 C   0  0  0  0  0  0  0  0  0  0  0  0
  -10.2486    3.5785   27.8103 C   0  0  0  0  0  0  0  0  0  0  0  0
  -11.3169    3.9823   27.0720 C   0  0  0  0  0  0  0  0  0  0  0  0
  -12.5034    3.3501   27.2307 C   0  0  0  0  0  0  0  0  0  0  0  0
  -12.8972    2.8509   28.3800 C   0  0  0  0  0  0  0  0  0  0  0  0
  -13.9966    2.0239   28.5572 C   0  0  0  0  0  0  0  0  0  0  0  0
  -13.4409    3.2400   26.1481 C   0  0  0  0  0  0  0  0  0  0  0  0
  -14.6057    2.4881   26.2544 C   0  0  0  0  0  0  0  0  0  0  0  0
  -14.9168    1.9337   27.5103 C   0  0  0  0  0  0  0  0  0  0  0  0
  -10.4669   -0.3452   23.9837 C   0  0  0  0  0  0  0  0  0  0  0  0
  -11.4286    0.2426   23.7912 O   0  0  0  0  0  0  0  0  0  0  0  0
  -10.3833   -1.6264   23.5433 N   0  0  0  0  0  0  0  0  0  0  0  0
  -11.2518   -2.1422   22.5519 C   0  0  0  0  0  0  0  0  0  0  0  0
  1  2  1  0
  3  1  1  1
  3  4  1  0
  2  5  1  0
  3 11  1  0
 11 12  1  0
 12 13  1  0
 10 19  1  0
 19 20  2  0
 19 21  1  0
 21 22  1  0
 13 14  2  0
 14 15  1  0
 15 18  2  0
 18 17  1  0
 17 16  2  0
 16 13  1  0
  4  6  2  0
  6  7  1  0
  7  8  2  0
  8 10  1  0
 10  9  2  0
  9  4  1  0
M  END
$$$$
