No_1703-complexes_sdf/6BKW-FPZ/2024-09-17-14-21-01/
     RDKit          3D

 17 19  0  0  0  0  0  0  0  0999 V2000
   -7.7129    4.2099   27.0854 C   0  0  0  0  0  0  0  0  0  0  0  0
   -8.2112    3.0637   26.9225 C   0  0  0  0  0  0  0  0  0  0  0  0
   -9.4446    2.8304   26.1868 C   0  0  0  0  0  0  0  0  0  0  0  0
   -8.4697    5.3956   26.7238 C   0  0  0  0  0  0  0  0  0  0  0  0
   -9.6172    5.2111   25.9513 C   0  0  0  0  0  0  0  0  0  0  0  0
  -10.0424    3.9782   25.6873 C   0  0  0  0  0  0  0  0  0  0  0  0
   -7.9321    6.5759   26.9449 F   0  0  0  0  0  0  0  0  0  0  0  0
   -9.8969    1.4744   25.9401 C   0  0  0  0  0  0  0  0  0  0  0  0
   -9.1831    0.5114   26.0828 C   0  0  0  0  0  0  0  0  0  0  0  0
   -7.8938    0.6726   26.8508 C   0  0  0  0  0  0  0  0  0  0  0  0
   -7.0451   -0.4201   27.2156 C   0  0  0  0  0  0  0  0  0  0  0  0
   -7.4858    2.0053   27.2393 C   0  0  0  0  0  0  0  0  0  0  0  0
   -7.4820   -1.5015   27.6910 C   0  0  0  0  0  0  0  0  0  0  0  0
   -7.0989   -2.2437   28.3556 C   0  0  0  0  0  0  0  0  0  0  0  0
   -5.6034   -2.1784   28.6836 C   0  0  0  0  0  0  0  0  0  0  0  0
   -4.9455   -1.0338   28.2002 C   0  0  0  0  0  0  0  0  0  0  0  0
   -5.6715   -0.0773   27.6379 C   0  0  0  0  0  0  0  0  0  0  0  0
  4  7  1  0
 11 10  1  0
  1  2  2  0
  3  6  2  0
  6  5  1  0
  5  4  2  0
  4  1  1  0
 11 13  2  0
 13 14  1  0
 14 15  2  0
 15 16  1  0
 16 17  2  0
 17 11  1  0
  2  3  1  0
  3  8  1  0
  8  9  2  0
  9 10  1  0
 10 12  2  0
 12  2  1  0
M  END
$$$$
