No_1015-complexes_sdf/6BKW-FPZ/2024-09-17-14-21-01/
     RDKit          3D

 16 18  0  0  0  0  0  0  0  0999 V2000
   -7.7129    4.2099   27.0854 C   0  0  0  0  0  0  0  0  0  0  0  0
   -7.7814    5.1722   27.8972 C   0  0  0  0  0  0  0  0  0  0  0  0
   -8.8998    3.8713   26.3707 C   0  0  0  0  0  0  0  0  0  0  0  0
   -9.9938    4.6774   26.5446 C   0  0  0  0  0  0  0  0  0  0  0  0
   -8.7789    6.1536   27.9256 C   0  0  0  0  0  0  0  0  0  0  0  0
   -9.9428    5.8398   27.2296 C   0  0  0  0  0  0  0  0  0  0  0  0
   -9.1381    2.6848   25.5884 C   0  0  0  0  0  0  0  0  0  0  0  0
   -9.9226    2.6572   24.4766 C   0  0  0  0  0  0  0  0  0  0  0  0
  -10.8505    3.7500   24.3648 C   0  0  0  0  0  0  0  0  0  0  0  0
  -11.0143    4.6355   25.4469 C   0  0  0  0  0  0  0  0  0  0  0  0
  -11.9167    3.6757   23.3726 C   0  0  0  0  0  0  0  0  0  0  0  0
  -12.3034    2.4642   23.1591 C   0  0  0  0  0  0  0  0  0  0  0  0
  -11.5056    1.7587   22.2705 C   0  0  0  0  0  0  0  0  0  0  0  0
  -10.3385    0.9131   22.8517 C   0  0  0  0  0  0  0  0  0  0  0  0
   -9.7594    1.4764   23.7153 C   0  0  0  0  0  0  0  0  0  0  0  0
   -6.6574    5.5530   28.6455 O   0  0  0  0  0  0  0  0  0  0  0  0
  9 11  1  0
 11 12  1  0
 12 13  1  0
 13 14  1  0
  8 15  1  0
 14 15  2  0
  2 16  1  0
  4 10  2  0
 10  9  1  0
  9  8  2  0
  8  7  1  0
  7  3  2  0
  1  2  2  0
  2  5  1  0
  5  6  2  0
  6  4  1  0
  4  3  1  0
  3  1  1  0
M  END
$$$$
