No_1189-complexes_sdf/6BKW-FPZ/2024-09-17-14-21-01/
     RDKit          3D

 20 21  0  0  0  0  0  0  0  0999 V2000
   -7.2496    3.8871   27.4508 C   0  0  0  0  0  0  0  0  0  0  0  0
   -7.9379    4.9063   27.8518 C   0  0  1  0  0  0  0  0  0  0  0  0
   -7.5112    6.1898   27.6280 C   0  0  0  0  0  0  0  0  0  0  0  0
   -9.3085    4.6933   28.2930 C   0  0  0  0  0  0  0  0  0  0  0  0
   -6.9424    2.7755   27.7938 C   0  0  0  0  0  0  0  0  0  0  0  0
   -6.0490    1.8086   27.3012 C   0  0  0  0  0  0  0  0  0  0  0  0
   -5.1962    1.1903   28.0771 C   0  0  0  0  0  0  0  0  0  0  0  0
   -5.4275   -0.2689   28.4049 C   0  0  0  0  0  0  0  0  0  0  0  0
   -6.3839   -0.9127   27.8027 C   0  0  0  0  0  0  0  0  0  0  0  0
   -6.7935   -2.1208   28.1559 C   0  0  0  0  0  0  0  0  0  0  0  0
   -6.2390   -2.6973   29.2611 C   0  0  0  0  0  0  0  0  0  0  0  0
   -4.8448   -0.8173   29.6242 C   0  0  0  0  0  0  0  0  0  0  0  0
   -5.2189   -2.0117   30.0359 C   0  0  0  0  0  0  0  0  0  0  0  0
   -3.7823   -0.0702   30.3850 C   0  0  0  0  0  0  0  0  0  0  0  0
   -3.6235   -0.5164   31.7675 C   0  0  0  0  0  0  0  0  0  0  0  0
   -4.1406   -1.4988   32.3085 C   0  0  0  0  0  0  0  0  0  0  0  0
   -5.1015   -2.2654   31.4839 C   0  0  0  0  0  0  0  0  0  0  0  0
   -7.7318    6.5049   26.6308 F   0  0  0  0  0  0  0  0  0  0  0  0
   -9.6616    3.2617   28.3649 C   0  0  0  0  0  0  0  0  0  0  0  0
  -10.9297    2.8100   28.6711 C   0  0  0  0  0  0  0  0  0  0  0  0
  1  2  1  0
  2  3  1  6
  2  4  1  0
  1  5  2  3
  5  6  1  0
  6  7  1  0
  3 18  1  0
  4 19  2  3
 19 20  1  0
  7  8  1  0
 13 17  2  0
 17 16  1  0
 16 15  2  0
 15 14  1  0
 14 12  2  0
  8  9  2  0
  9 10  1  0
 10 11  2  0
 11 13  1  0
 13 12  1  0
 12  8  1  0
M  END
$$$$
