No_1098-complexes_sdf/6BKW-FPZ/2024-09-17-14-21-01/
     RDKit          3D

 20 21  0  0  0  0  0  0  0  0999 V2000
   -7.7129    4.2099   27.0854 C   0  0  0  0  0  0  0  0  0  0  0  0
   -8.2112    3.0637   26.9225 C   0  0  0  0  0  0  0  0  0  0  0  0
   -8.5108    5.3904   26.9436 C   0  0  0  0  0  0  0  0  0  0  0  0
   -9.7256    5.1955   26.3518 C   0  0  0  0  0  0  0  0  0  0  0  0
   -7.4704    1.8386   27.3272 C   0  0  0  0  0  0  0  0  0  0  0  0
   -9.4948    2.8714   26.4765 C   0  0  0  0  0  0  0  0  0  0  0  0
  -10.2383    3.9753   26.1836 C   0  0  0  0  0  0  0  0  0  0  0  0
   -7.8669    0.5528   27.1617 C   0  0  0  0  0  0  0  0  0  0  0  0
   -9.2513    0.5026   26.6601 C   0  0  2  0  0  0  0  0  0  0  0  0
  -10.0100    1.5504   26.3433 C   0  0  2  0  0  0  0  0  0  0  0  0
   -9.1968    2.8443   25.5222 F   0  0  0  0  0  0  0  0  0  0  0  0
  -11.3726    1.3442   26.2982 C   0  0  0  0  0  0  0  0  0  0  0  0
   -9.8802    0.9722   25.1089 C   0  0  0  0  0  0  0  0  0  0  0  0
  -10.5861   -0.1778   24.7044 C   0  0  0  0  0  0  0  0  0  0  0  0
   -8.9434    1.2855   24.0651 C   0  0  0  0  0  0  0  0  0  0  0  0
  -10.0617    0.9109   27.3389 F   0  0  0  0  0  0  0  0  0  0  0  0
   -9.5410   -0.8014   26.7511 F   0  0  0  0  0  0  0  0  0  0  0  0
  -12.2714    0.6673   26.4901 C   0  0  0  0  0  0  0  0  0  0  0  0
  -12.0128    2.7296   26.0456 C   0  0  0  0  0  0  0  0  0  0  0  0
  -11.4544    3.8881   25.9732 N   0  0  0  0  0  0  0  0  0  0  0  0
  2  5  1  0
  5  8  2  3
  8  9  1  0
  9 10  1  0
  6 11  1  0
 10 12  1  0
 10 13  1  0
 13 14  1  0
 13 15  1  0
 10 16  1  6
  9 17  1  1
 12 18  2  0
 12 19  1  0
  7 20  1  0
 19 20  1  0
  1  2  2  0
  2  6  1  0
  6  7  2  0
  7  4  1  0
  4  3  2  0
  3  1  1  0
M  END
$$$$
