No_1432-complexes_sdf/6BKW-FPZ/2024-09-17-14-21-01/
     RDKit          3D

 28 30  0  0  0  0  0  0  0  0999 V2000
   -7.2496    3.8871   27.4508 C   0  0  0  0  0  0  0  0  0  0  0  0
   -7.9379    4.9063   27.8518 C   0  0  0  0  0  0  0  0  0  0  0  0
   -7.5112    6.1898   27.6280 C   0  0  0  0  0  0  0  0  0  0  0  0
   -7.8078    2.6331   27.2522 C   0  0  0  0  0  0  0  0  0  0  0  0
   -9.1846    2.4724   27.5426 C   0  0  0  0  0  0  0  0  0  0  0  0
   -9.9168    3.5155   28.0405 C   0  0  0  0  0  0  0  0  0  0  0  0
   -9.3366    4.7963   28.1727 C   0  0  0  0  0  0  0  0  0  0  0  0
  -11.3249    3.2653   28.4083 C   0  0  0  0  0  0  0  0  0  0  0  0
  -12.1802    4.2448   28.6670 C   0  0  0  0  0  0  0  0  0  0  0  0
  -11.7397    1.9319   28.7100 C   0  0  0  0  0  0  0  0  0  0  0  0
  -13.5182    4.0878   29.0586 C   0  0  0  0  0  0  0  0  0  0  0  0
  -13.0484    1.6891   29.1187 C   0  0  0  0  0  0  0  0  0  0  0  0
  -13.9108    2.7882   29.3028 C   0  0  0  0  0  0  0  0  0  0  0  0
   -7.0541    1.4386   26.8624 C   0  0  0  0  0  0  0  0  0  0  0  0
   -7.0626    0.3538   27.7246 C   0  0  0  0  0  0  0  0  0  0  0  0
   -7.8549   -0.6410   27.4812 C   0  0  0  0  0  0  0  0  0  0  0  0
   -7.9283   -1.8101   28.3522 C   0  0  0  0  0  0  0  0  0  0  0  0
   -6.9030   -1.9696   29.2975 C   0  0  0  0  0  0  0  0  0  0  0  0
   -5.8965   -0.9783   29.3905 C   0  0  0  0  0  0  0  0  0  0  0  0
   -5.8856    0.1382   28.6049 C   0  0  0  0  0  0  0  0  0  0  0  0
   -4.7801    1.1149   28.7299 C   0  0  0  0  0  0  0  0  0  0  0  0
   -3.8059    0.7497   28.1500 O   0  0  0  0  0  0  0  0  0  0  0  0
  -15.3061    2.4877   29.7546 C   0  0  0  0  0  0  0  0  0  0  0  0
  -15.5808    2.1590   30.9719 C   0  0  0  0  0  0  0  0  0  0  0  0
  -14.8187    2.3039   31.9067 C   0  0  0  0  0  0  0  0  0  0  0  0
  -15.0817    1.9379   33.3541 C   0  0  0  0  0  0  0  0  0  0  0  0
  -15.5887    1.1725   33.7619 F   0  0  0  0  0  0  0  0  0  0  0  0
  -15.6921    3.1519   33.8659 F   0  0  0  0  0  0  0  0  0  0  0  0
  6  8  1  0
  4 14  1  0
 14 15  1  0
 20 21  1  0
 21 22  2  0
 13 23  1  0
 23 24  1  0
 24 25  2  3
 25 26  1  0
 26 27  1  0
 26 28  1  0
  3  2  1  0
 15 16  2  0
 16 17  1  0
 17 18  2  0
 18 19  1  0
 19 20  2  0
 20 15  1  0
  8  9  2  0
  9 11  1  0
 11 13  2  0
 13 12  1  0
 12 10  2  0
 10  8  1  0
  1  2  2  0
  2  7  1  0
  7  6  2  0
  6  5  1  0
  5  4  2  0
  4  1  1  0
M  END
$$$$
