No_11-complexes_sdf/6BKW-FPZ/2024-09-17-14-21-01/
     RDKit          3D

 15 16  0  0  0  0  0  0  0  0999 V2000
   -7.9040    3.9820   27.1177 C   0  0  0  0  0  0  0  0  0  0  0  0
   -7.8663    4.8694   27.9238 C   0  0  0  0  0  0  0  0  0  0  0  0
   -9.0501    3.8017   26.2617 C   0  0  0  0  0  0  0  0  0  0  0  0
  -10.0189    4.7608   26.3707 C   0  0  0  0  0  0  0  0  0  0  0  0
   -8.6770    5.9780   27.9222 C   0  0  0  0  0  0  0  0  0  0  0  0
   -9.8040    5.8752   27.0958 C   0  0  0  0  0  0  0  0  0  0  0  0
   -9.1165    2.7696   25.4779 F   0  0  0  0  0  0  0  0  0  0  0  0
   -7.1206    2.8375   27.0231 O   0  0  0  0  0  0  0  0  0  0  0  0
   -7.2768    1.7628   27.9099 C   0  0  0  0  0  0  0  0  0  0  0  0
   -6.9046    0.4788   27.1805 C   0  0  0  0  0  0  0  0  0  0  0  0
   -7.4330   -0.6270   27.6791 C   0  0  0  0  0  0  0  0  0  0  0  0
   -6.6653   -1.5736   28.2490 C   0  0  0  0  0  0  0  0  0  0  0  0
   -5.2630   -1.5553   27.8975 C   0  0  0  0  0  0  0  0  0  0  0  0
   -4.6947   -0.4238   27.2783 C   0  0  0  0  0  0  0  0  0  0  0  0
   -5.4985    0.7137   27.1537 C   0  0  0  0  0  0  0  0  0  0  0  0
  3  7  1  0
  1  8  1  0
  8  9  1  0
  9 10  1  0
  1  2  2  0
  2  5  1  0
  5  6  2  0
  6  4  1  0
  4  3  2  0
  3  1  1  0
 10 11  2  0
 11 12  1  0
 12 13  2  0
 13 14  1  0
 14 15  2  0
 15 10  1  0
M  END
$$$$
