No_1323-complexes_sdf/6BKW-FPZ/2024-09-17-14-21-01/
     RDKit          3D

 30 34  0  0  0  0  0  0  0  0999 V2000
   -7.7129    4.2099   27.0854 C   0  0  0  0  0  0  0  0  0  0  0  0
   -7.7814    5.1722   27.8972 C   0  0  0  0  0  0  0  0  0  0  0  0
   -7.3155    2.9699   27.6145 C   0  0  0  0  0  0  0  0  0  0  0  0
   -7.6814    1.8188   26.9581 C   0  0  0  0  0  0  0  0  0  0  0  0
   -7.2010    0.5770   27.3247 C   0  0  0  0  0  0  0  0  0  0  0  0
   -7.8389   -0.6073   26.9665 C   0  0  0  0  0  0  0  0  0  0  0  0
   -8.9524   -0.4639   26.1062 C   0  0  0  0  0  0  0  0  0  0  0  0
   -9.3616    0.7293   25.6203 C   0  0  0  0  0  0  0  0  0  0  0  0
  -10.4367    0.9057   24.7325 C   0  0  0  0  0  0  0  0  0  0  0  0
   -8.7120    1.8879   26.0665 C   0  0  0  0  0  0  0  0  0  0  0  0
   -8.4649    6.4209   27.5397 C   0  0  0  0  0  0  0  0  0  0  0  0
  -11.5146    0.7888   24.7432 C   0  0  0  0  0  0  0  0  0  0  0  0
   -9.8564    1.3258   23.3421 C   0  0  0  0  0  0  0  0  0  0  0  0
  -10.6276    1.5823   22.2707 C   0  0  0  0  0  0  0  0  0  0  0  0
  -12.5158    0.9942   23.6945 C   0  0  0  0  0  0  0  0  0  0  0  0
  -11.9843    1.4038   22.4352 C   0  0  0  0  0  0  0  0  0  0  0  0
   -8.7929    6.6130   26.0965 C   0  0  0  0  0  0  0  0  0  0  0  0
   -9.1009    5.4169   25.4504 C   0  0  0  0  0  0  0  0  0  0  0  0
   -8.6608    4.1788   26.0692 C   0  0  0  0  0  0  0  0  0  0  0  0
   -9.1050    3.0146   25.4768 C   0  0  0  0  0  0  0  0  0  0  0  0
   -7.3856   -1.9054   27.4187 C   0  0  0  0  0  0  0  0  0  0  0  0
   -6.1946   -2.2201   27.5189 C   0  0  0  0  0  0  0  0  0  0  0  0
   -5.1622   -1.2451   27.2078 C   0  0  0  0  0  0  0  0  0  0  0  0
   -3.7278   -1.4699   27.5154 C   0  0  0  0  0  0  0  0  0  0  0  0
   -2.7870   -0.5025   27.1588 C   0  0  0  0  0  0  0  0  0  0  0  0
   -3.2404    0.7255   26.6312 C   0  0  0  0  0  0  0  0  0  0  0  0
   -4.5646    1.0314   26.5992 C   0  0  0  0  0  0  0  0  0  0  0  0
   -5.4528    0.0732   26.8503 C   0  0  0  0  0  0  0  0  0  0  0  0
   -5.6754   -0.2009   25.4826 F   0  0  0  0  0  0  0  0  0  0  0  0
   -6.8886    0.5041   28.7521 O   0  0  0  0  0  0  0  0  0  0  0  0
  8  9  1  0
  6 21  1  0
 21 22  2  3
 22 23  1  0
 28 29  1  0
  5 30  1  0
  1  3  1  0
  3  4  2  0
 10 20  2  0
 20 19  1  0
 23 24  2  0
 24 25  1  0
 25 26  2  0
 26 27  1  0
 27 28  2  0
 28 23  1  0
  1  2  2  0
  2 11  1  0
 11 17  2  0
 17 18  1  0
 18 19  2  0
 19  1  1  0
  9 12  2  0
 12 15  1  0
 15 16  2  0
 16 14  1  0
 14 13  2  0
 13  9  1  0
  4  5  1  0
  5  6  2  0
  6  7  1  0
  7  8  2  0
  8 10  1  0
 10  4  1  0
M  END
$$$$
