No_187-complexes_sdf/6BKW-FPZ/2024-09-17-14-21-01/
     RDKit          3D

 22 25  0  0  0  0  0  0  0  0999 V2000
   -7.2496    3.8871   27.4508 C   0  0  0  0  0  0  0  0  0  0  0  0
   -7.9379    4.9063   27.8518 C   0  0  0  0  0  0  0  0  0  0  0  0
   -8.7729    5.5444   27.0168 C   0  0  0  0  0  0  0  0  0  0  0  0
   -6.2858    3.2138   28.3467 C   0  0  0  0  0  0  0  0  0  0  0  0
   -9.2459    4.9714   25.8185 C   0  0  0  0  0  0  0  0  0  0  0  0
   -8.7245    3.6550   25.5132 C   0  0  0  0  0  0  0  0  0  0  0  0
   -7.8326    3.1219   26.4052 C   0  0  0  0  0  0  0  0  0  0  0  0
   -5.6873    1.9697   27.9543 C   0  0  0  0  0  0  0  0  0  0  0  0
   -6.3755    1.1447   27.0491 C   0  0  0  0  0  0  0  0  0  0  0  0
   -7.3924    1.7275   26.1973 C   0  0  0  0  0  0  0  0  0  0  0  0
   -4.6095    1.4409   28.7792 C   0  0  0  0  0  0  0  0  0  0  0  0
   -3.7350    1.9975   29.2270 F   0  0  0  0  0  0  0  0  0  0  0  0
   -4.6902   -0.0514   28.9546 C   0  0  0  0  0  0  0  0  0  0  0  0
   -5.4651   -0.9677   28.6419 C   0  0  0  0  0  0  0  0  0  0  0  0
   -5.4884   -2.2356   28.8931 C   0  0  0  0  0  0  0  0  0  0  0  0
   -6.2919   -0.3000   27.2520 C   0  0  0  0  0  0  0  0  0  0  0  0
   -5.0371   -2.6239   29.8377 C   0  0  0  0  0  0  0  0  0  0  0  0
   -5.0729   -3.9997   30.3879 C   0  0  0  0  0  0  0  0  0  0  0  0
   -4.4606   -4.3744   31.5888 C   0  0  0  0  0  0  0  0  0  0  0  0
   -3.7314   -3.3887   32.2957 C   0  0  0  0  0  0  0  0  0  0  0  0
   -3.6290   -2.0858   31.8726 C   0  0  0  0  0  0  0  0  0  0  0  0
   -4.2533   -1.6902   30.7059 C   0  0  0  0  0  0  0  0  0  0  0  0
 11 12  1  0
 14 15  1  0
 15 17  1  0
 17 18  2  0
 18 19  1  0
 19 20  2  0
 20 21  1  0
 21 22  2  0
 22 17  1  0
  1  4  1  0
  4  8  2  0
  9 10  2  0
 10  7  1  0
  8  9  1  0
  9 16  1  0
 16 14  2  0
 14 13  1  0
 13 11  2  0
 11  8  1  0
  1  2  2  0
  2  3  1  0
  3  5  2  0
  5  6  1  0
  6  7  2  0
  7  1  1  0
M  END
$$$$
