No_1019-complexes_sdf/6BKW-FPZ/2024-09-17-14-21-01/
     RDKit          3D

 29 31  0  0  0  0  0  0  0  0999 V2000
   -7.2496    3.8871   27.4508 C   0  0  0  0  0  0  0  0  0  0  0  0
   -7.9379    4.9063   27.8518 C   0  0  0  0  0  0  0  0  0  0  0  0
   -8.9501    5.3664   27.1340 C   0  0  0  0  0  0  0  0  0  0  0  0
   -7.8297    2.9727   26.4637 C   0  0  0  0  0  0  0  0  0  0  0  0
   -9.6373    4.6098   26.1956 C   0  0  0  0  0  0  0  0  0  0  0  0
   -9.0235    3.4546   25.8531 C   0  0  0  0  0  0  0  0  0  0  0  0
   -9.6254    2.5622   24.8676 C   0  0  0  0  0  0  0  0  0  0  0  0
  -10.3554    3.1794   23.8011 C   0  0  0  0  0  0  0  0  0  0  0  0
  -10.8632    2.3880   22.8056 C   0  0  0  0  0  0  0  0  0  0  0  0
  -10.4973    1.0107   22.7427 C   0  0  0  0  0  0  0  0  0  0  0  0
   -9.2195    1.3170   24.5564 C   0  0  0  0  0  0  0  0  0  0  0  0
   -9.6212    0.5400   23.6204 C   0  0  0  0  0  0  0  0  0  0  0  0
   -6.1755    3.3711   28.0587 F   0  0  0  0  0  0  0  0  0  0  0  0
  -11.7070    2.8719   21.8734 F   0  0  0  0  0  0  0  0  0  0  0  0
   -9.5610    6.6186   27.5221 O   0  0  0  0  0  0  0  0  0  0  0  0
   -9.2219   -0.9036   23.4802 C   0  0  0  0  0  0  0  0  0  0  0  0
   -8.5783   -1.5770   24.1202 C   0  0  0  0  0  0  0  0  0  0  0  0
   -8.0575   -1.0117   25.4112 C   0  0  0  0  0  0  0  0  0  0  0  0
   -8.3670    0.4131   25.6773 C   0  0  0  0  0  0  0  0  0  0  0  0
   -7.2219   -1.6614   26.3982 C   0  0  0  0  0  0  0  0  0  0  0  0
   -7.1103   -1.1353   27.5925 C   0  0  0  0  0  0  0  0  0  0  0  0
   -6.3250   -1.7241   28.6519 C   0  0  0  0  0  0  0  0  0  0  0  0
   -6.0219   -0.9680   29.8268 C   0  0  0  0  0  0  0  0  0  0  0  0
   -4.8593   -0.7967   30.3616 C   0  0  2  0  0  0  0  0  0  0  0  0
   -4.5503    0.1443   31.4074 C   0  0  0  0  0  0  0  0  0  0  0  0
   -3.6503   -1.4833   29.8100 C   0  0  0  0  0  0  0  0  0  0  0  0
   -3.4364   -1.6530   28.6892 C   0  0  0  0  0  0  0  0  0  0  0  0
   -2.1380   -2.1638   28.3219 C   0  0  0  0  0  0  0  0  0  0  0  0
   -1.1486   -2.2055   29.1993 C   0  0  0  0  0  0  0  0  0  0  0  0
  6  7  1  0
  1 13  1  0
  9 14  1  0
  3 15  1  0
 18 20  1  0
 20 21  2  3
 21 22  1  0
 22 23  2  3
 23 24  1  0
 24 25  1  6
 24 26  1  0
 26 27  2  3
 27 28  1  0
 28 29  2  0
  7  8  2  0
  8  9  1  0
  9 10  2  0
 10 12  1  0
 11  7  1  0
  1  2  2  0
  2  3  1  0
  3  5  2  0
  5  6  1  0
  6  4  2  0
  4  1  1  0
 11 12  2  0
 12 16  1  0
 16 17  2  0
 17 18  1  0
 18 19  2  0
 19 11  1  0
M  END
$$$$
