No_1347-complexes_sdf/6BKW-FPZ/2024-09-17-14-21-01/
     RDKit          3D

 34 38  0  0  0  0  0  0  0  0999 V2000
   -7.9040    3.9820   27.1177 C   0  0  0  0  0  0  0  0  0  0  0  0
   -8.2057    2.8231   26.8733 C   0  0  0  0  0  0  0  0  0  0  0  0
   -7.4766    1.7477   27.4593 C   0  0  0  0  0  0  0  0  0  0  0  0
   -8.7468    5.1251   26.6967 C   0  0  0  0  0  0  0  0  0  0  0  0
   -8.4775    6.4967   27.1056 C   0  0  0  0  0  0  0  0  0  0  0  0
   -6.1172    2.0790   27.8378 C   0  0  0  0  0  0  0  0  0  0  0  0
   -5.2892    1.0227   28.4035 C   0  0  0  0  0  0  0  0  0  0  0  0
   -3.9563    1.3202   28.7885 C   0  0  0  0  0  0  0  0  0  0  0  0
   -9.2702    7.5264   26.6941 C   0  0  0  0  0  0  0  0  0  0  0  0
   -5.7874   -0.3057   28.3972 C   0  0  0  0  0  0  0  0  0  0  0  0
   -4.9562   -1.3010   28.9321 C   0  0  0  0  0  0  0  0  0  0  0  0
   -3.1786    0.3282   29.3563 C   0  0  0  0  0  0  0  0  0  0  0  0
   -3.7141   -0.9830   29.4466 C   0  0  0  0  0  0  0  0  0  0  0  0
   -9.5300    2.4399   26.4406 C   0  0  0  0  0  0  0  0  0  0  0  0
  -10.3690    3.4709   25.9068 C   0  0  0  0  0  0  0  0  0  0  0  0
   -9.9627    4.8356   26.0910 C   0  0  0  0  0  0  0  0  0  0  0  0
   -7.1552    6.6736   27.7296 C   0  0  0  0  0  0  0  0  0  0  0  0
   -2.8741   -2.0577   30.0445 C   0  0  0  0  0  0  0  0  0  0  0  0
   -2.8633   -3.1548   29.6897 C   0  0  0  0  0  0  0  0  0  0  0  0
   -2.1030   -4.1301   30.2394 C   0  0  0  0  0  0  0  0  0  0  0  0
   -2.0515   -1.5850   31.1838 C   0  0  0  0  0  0  0  0  0  0  0  0
   -1.2805   -2.4758   31.8492 C   0  0  0  0  0  0  0  0  0  0  0  0
   -1.2663   -3.7844   31.3971 C   0  0  0  0  0  0  0  0  0  0  0  0
   -7.0552   -0.6126   27.9784 C   0  0  0  0  0  0  0  0  0  0  0  0
   -7.8892    0.4035   27.4611 C   0  0  0  0  0  0  0  0  0  0  0  0
   -0.4464   -4.8053   32.0629 C   0  0  0  0  0  0  0  0  0  0  0  0
    0.4094   -5.5902   31.8371 Cl  0  0  0  0  0  0  0  0  0  0  0  0
   -1.0092   -4.7497   33.5590 C   0  0  0  0  0  0  0  0  0  0  0  0
   -1.1773   -5.8068   34.1151 C   0  0  0  0  0  0  0  0  0  0  0  0
   -1.9842   -6.2843   34.5440 C   0  0  0  0  0  0  0  0  0  0  0  0
   -3.3367   -5.5960   34.6299 C   0  0  0  0  0  0  0  0  0  0  0  0
   -3.2857   -4.2133   34.4086 C   0  0  0  0  0  0  0  0  0  0  0  0
   -2.1238   -3.7799   33.6727 C   0  0  0  0  0  0  0  0  0  0  0  0
   -1.6752   -2.5599   34.3647 C   0  0  0  0  0  0  0  0  0  0  0  0
  2  3  1  0
  5  9  1  0
  5 17  1  0
 13 18  1  0
 23 26  1  0
 26 27  1  0
 26 28  1  0
 33 34  1  0
  5  4  1  0
  7  8  2  0
  8 12  1  0
 12 13  2  0
 13 11  1  0
 11 10  2  0
  3  6  2  0
  6  7  1  0
  7 10  1  0
 10 24  1  0
 24 25  2  0
 25  3  1  0
  1  2  2  0
  2 14  1  0
 14 15  2  0
 15 16  1  0
 16  4  2  0
  4  1  1  0
 28 29  2  0
 29 30  1  0
 30 31  2  0
 31 32  1  0
 32 33  2  0
 33 28  1  0
 18 19  2  0
 19 20  1  0
 20 23  2  0
 23 22  1  0
 22 21  2  0
 21 18  1  0
M  END
$$$$
