No_1549-complexes_sdf/6BKW-FPZ/2024-09-17-14-21-01/
     RDKit          3D

 26 29  0  0  0  0  0  0  0  0999 V2000
   -7.9040    3.9820   27.1177 C   0  0  0  0  0  0  0  0  0  0  0  0
   -9.0711    4.3164   27.0630 C   0  0  0  0  0  0  0  0  0  0  0  0
   -9.5182    5.5541   27.5777 C   0  0  0  0  0  0  0  0  0  0  0  0
   -6.9424    4.7983   27.8424 C   0  0  0  0  0  0  0  0  0  0  0  0
   -7.3526    5.9739   28.3909 C   0  0  0  0  0  0  0  0  0  0  0  0
   -8.6479    6.3742   28.2169 C   0  0  0  0  0  0  0  0  0  0  0  0
  -10.0793    3.4689   26.3368 C   0  0  0  0  0  0  0  0  0  0  0  0
   -9.6567    2.5965   25.4484 C   0  0  0  0  0  0  0  0  0  0  0  0
  -10.5006    1.9727   24.5070 C   0  0  0  0  0  0  0  0  0  0  0  0
  -11.8509    2.3247   24.5523 C   0  0  0  0  0  0  0  0  0  0  0  0
  -12.2919    3.2919   25.4277 C   0  0  0  0  0  0  0  0  0  0  0  0
  -11.4155    3.9824   26.2753 C   0  0  0  0  0  0  0  0  0  0  0  0
  -10.0240    0.9236   23.6172 C   0  0  0  0  0  0  0  0  0  0  0  0
  -10.4935   -0.0146   23.4888 C   0  0  0  0  0  0  0  0  0  0  0  0
  -11.3225   -0.5920   24.0738 C   0  0  0  0  0  0  0  0  0  0  0  0
  -11.8922   -1.9502   23.7559 C   0  0  0  0  0  0  0  0  0  0  0  0
  -11.3854   -2.4954   22.6332 C   0  0  0  0  0  0  0  0  0  0  0  0
  -10.4363   -1.9454   21.8320 C   0  0  0  0  0  0  0  0  0  0  0  0
   -9.9092   -0.7432   22.1663 C   0  0  0  0  0  0  0  0  0  0  0  0
   -8.7780    1.4746   22.9893 N   0  0  0  0  0  0  0  0  0  0  0  0
  -13.7205    3.6424   25.4252 C   0  0  0  0  0  0  0  0  0  0  0  0
  -14.3898    3.7930   26.6412 C   0  0  0  0  0  0  0  0  0  0  0  0
  -15.6091    4.3777   26.6701 C   0  0  0  0  0  0  0  0  0  0  0  0
  -14.3794    3.8622   24.2409 C   0  0  0  0  0  0  0  0  0  0  0  0
  -15.6911    4.3706   24.2545 C   0  0  0  0  0  0  0  0  0  0  0  0
  -16.2993    4.6475   25.4674 C   0  0  0  0  0  0  0  0  0  0  0  0
  2  7  1  0
  9 13  1  0
 13 14  1  0
 13 20  2  0
 11 21  1  0
 14 15  2  0
 15 16  1  0
 16 17  2  0
 17 18  1  0
 18 19  2  0
 19 14  1  0
  1  2  2  0
  2  3  1  0
  3  6  2  0
  6  5  1  0
  5  4  2  0
  4  1  1  0
 21 22  2  0
 22 23  1  0
 23 26  2  0
 26 25  1  0
 25 24  2  0
 24 21  1  0
  7  8  2  0
  8  9  1  0
  9 10  2  0
 10 11  1  0
 11 12  2  0
 12  7  1  0
M  END
$$$$
