No_1280-complexes_sdf/6BKW-FPZ/2024-09-17-14-21-01/
     RDKit          3D

 29 32  0  0  0  0  0  0  0  0999 V2000
   -7.9040    3.9820   27.1177 C   0  0  0  0  0  0  0  0  0  0  0  0
   -7.8663    4.8694   27.9238 C   0  0  0  0  0  0  0  0  0  0  0  0
   -7.4698    2.6989   27.4277 C   0  0  0  0  0  0  0  0  0  0  0  0
   -7.9683    1.5964   26.8266 C   0  0  0  0  0  0  0  0  0  0  0  0
   -8.9447    1.7923   25.8533 C   0  0  0  0  0  0  0  0  0  0  0  0
   -9.4405    2.9988   25.5757 C   0  0  0  0  0  0  0  0  0  0  0  0
   -8.9424    4.1117   26.2388 C   0  0  0  0  0  0  0  0  0  0  0  0
   -8.3103    6.1970   27.6444 N   0  0  0  0  0  0  0  0  0  0  0  0
   -9.2017    6.5264   26.7040 C   0  0  0  0  0  0  0  0  0  0  0  0
   -9.5492    5.4018   25.9329 C   0  0  0  0  0  0  0  0  0  0  0  0
   -7.3783    0.2539   27.0964 C   0  0  0  0  0  0  0  0  0  0  0  0
   -6.0866    0.1289   27.5719 C   0  0  0  0  0  0  0  0  0  0  0  0
   -5.5491   -1.1005   27.9060 C   0  0  0  0  0  0  0  0  0  0  0  0
   -6.3543   -2.1968   27.7809 C   0  0  0  0  0  0  0  0  0  0  0  0
   -7.9810   -0.9931   27.0843 C   0  0  0  0  0  0  0  0  0  0  0  0
   -7.5758   -2.1272   27.4048 C   0  0  0  0  0  0  0  0  0  0  0  0
   -4.1150   -1.1071   28.4192 C   0  0  1  0  0  0  0  0  0  0  0  0
   -3.2459   -1.5072   27.7993 C   0  0  0  0  0  0  0  0  0  0  0  0
   -2.9790   -1.5203   26.7557 C   0  0  0  0  0  0  0  0  0  0  0  0
   -1.7238   -1.9619   26.0313 C   0  0  0  0  0  0  0  0  0  0  0  0
   -0.6817   -2.3211   26.7827 C   0  0  0  0  0  0  0  0  0  0  0  0
   -0.8272   -2.2831   28.1593 C   0  0  0  0  0  0  0  0  0  0  0  0
   -1.9546   -1.8214   28.7186 C   0  0  0  0  0  0  0  0  0  0  0  0
   -4.1664   -0.3638   29.7874 C   0  0  0  0  0  0  0  0  0  0  0  0
   -3.9893   -1.1126   30.9294 C   0  0  0  0  0  0  0  0  0  0  0  0
   -4.2880   -0.8246   31.9937 C   0  0  0  0  0  0  0  0  0  0  0  0
   -4.0106   -1.4610   33.2929 C   0  0  0  0  0  0  0  0  0  0  0  0
   -3.0466   -2.4379   33.2040 C   0  0  0  0  0  0  0  0  0  0  0  0
   -2.4836   -2.7299   32.0085 C   0  0  0  0  0  0  0  0  0  0  0  0
  4 11  1  0
 17 13  1  6
 17 18  1  0
 17 24  1  0
 24 25  2  3
 25 26  1  0
 26 27  2  3
 27 28  1  0
 28 29  2  0
 18 19  2  0
 19 20  1  0
 20 21  2  0
 21 22  1  0
 22 23  2  0
 23 18  1  0
  1  2  2  0
  2  8  1  0
  8  9  2  0
  9 10  1  0
 10  7  2  0
 11 12  2  0
 12 13  1  0
 13 14  2  0
 14 16  1  0
 16 15  2  0
 15 11  1  0
  1  3  1  0
  3  4  2  0
  4  5  1  0
  5  6  2  0
  6  7  1  0
  7  1  1  0
M  END
$$$$
