No_1490-complexes_sdf/6BKW-FPZ/2024-09-17-14-21-01/
     RDKit          3D

 40 44  0  0  0  0  0  0  0  0999 V2000
   -7.7129    4.2099   27.0854 C   0  0  0  0  0  0  0  0  0  0  0  0
   -8.2112    3.0637   26.9225 C   0  0  0  0  0  0  0  0  0  0  0  0
   -7.5138    1.9223   27.4249 C   0  0  0  0  0  0  0  0  0  0  0  0
   -8.5309    5.4147   26.8151 C   0  0  0  0  0  0  0  0  0  0  0  0
   -9.6817    5.2393   26.1100 C   0  0  0  0  0  0  0  0  0  0  0  0
  -10.1032    3.9957   25.8534 C   0  0  0  0  0  0  0  0  0  0  0  0
   -9.4073    2.9638   26.2624 C   0  0  0  0  0  0  0  0  0  0  0  0
   -6.9200    1.0008   26.6667 C   0  0  0  0  0  0  0  0  0  0  0  0
   -6.0689    0.0541   27.2605 C   0  0  0  0  0  0  0  0  0  0  0  0
   -6.4025   -1.2110   27.3506 C   0  0  0  0  0  0  0  0  0  0  0  0
   -7.8826    6.9902   27.0955 Cl  0  0  0  0  0  0  0  0  0  0  0  0
   -4.7536    0.5734   27.7534 C   0  0  0  0  0  0  0  0  0  0  0  0
   -3.7861   -0.2552   28.3292 C   0  0  0  0  0  0  0  0  0  0  0  0
   -5.3669   -2.1068   28.0451 C   0  0  0  0  0  0  0  0  0  0  0  0
   -4.1172   -1.5749   28.5081 C   0  0  0  0  0  0  0  0  0  0  0  0
  -11.3322    3.8702   25.0421 C   0  0  0  0  0  0  0  0  0  0  0  0
  -11.4154    2.5159   24.6433 F   0  0  0  0  0  0  0  0  0  0  0  0
  -11.2628    4.6330   23.9015 F   0  0  0  0  0  0  0  0  0  0  0  0
  -12.4025    4.1908   25.7267 F   0  0  0  0  0  0  0  0  0  0  0  0
   -3.1120   -2.4516   29.1581 C   0  0  0  0  0  0  0  0  0  0  0  0
   -2.9453   -2.4319   30.2594 C   0  0  0  0  0  0  0  0  0  0  0  0
   -1.9339   -3.1645   30.9609 C   0  0  0  0  0  0  0  0  0  0  0  0
   -1.1914   -4.0278   30.1627 C   0  0  0  0  0  0  0  0  0  0  0  0
   -2.3520   -3.2625   28.2679 C   0  0  0  0  0  0  0  0  0  0  0  0
   -1.3772   -4.0395   28.8150 C   0  0  0  0  0  0  0  0  0  0  0  0
   -3.6683   -1.4577   31.2821 C   0  0  0  0  0  0  0  0  0  0  0  0
   -3.6513   -1.4265   32.5044 C   0  0  0  0  0  0  0  0  0  0  0  0
   -4.2753   -1.3231   33.3133 C   0  0  0  0  0  0  0  0  0  0  0  0
   -4.9730   -1.5665   34.3204 C   0  0  0  0  0  0  0  0  0  0  0  0
   -6.3307   -1.7524   34.5341 C   0  0  0  0  0  0  0  0  0  0  0  0
   -6.5746   -2.9280   34.6082 C   0  0  0  0  0  0  0  0  0  0  0  0
   -7.8875   -3.2977   34.0820 C   0  0  0  0  0  0  0  0  0  0  0  0
   -7.9201   -3.8326   32.7521 C   0  0  0  0  0  0  0  0  0  0  0  0
   -8.7699   -3.3847   31.9773 C   0  0  0  0  0  0  0  0  0  0  0  0
  -10.0364   -2.7777   32.3606 C   0  0  0  0  0  0  0  0  0  0  0  0
  -10.1367   -2.5154   33.7708 C   0  0  0  0  0  0  0  0  0  0  0  0
   -9.0721   -2.6997   34.5319 C   0  0  0  0  0  0  0  0  0  0  0  0
   -5.8805   -3.9926   35.2324 C   0  0  0  0  0  0  0  0  0  0  0  0
   -4.1067   -1.9802   35.4823 C   0  0  0  0  0  0  0  0  0  0  0  0
   -4.5732   -3.4890   35.7353 C   0  0  0  0  0  0  0  0  0  0  0  0
  2  3  1  0
  3  8  1  0
  8  9  1  0
  4 11  1  0
  6 16  1  0
 16 17  1  0
 16 18  1  0
 16 19  1  0
 15 20  1  0
 21 26  1  0
 26 27  1  0
 27 28  2  3
 28 29  1  0
 31 32  1  0
 32 33  2  0
 33 34  1  0
 34 35  2  0
 35 36  1  0
 36 37  2  0
 37 32  1  0
 29 30  2  0
 30 31  1  0
 31 38  2  0
 38 40  1  0
 40 39  2  0
 39 29  1  0
  1  2  2  0
  2  7  1  0
  7  6  2  0
  6  5  1  0
  5  4  2  0
  4  1  1  0
  9 10  2  0
 10 14  1  0
 14 15  2  0
 15 13  1  0
 13 12  2  0
 12  9  1  0
 20 21  1  0
 21 22  2  0
 22 23  1  0
 23 25  2  0
 25 24  1  0
 24 20  2  0
M  END
$$$$
