No_1300-complexes_sdf/6BKW-FPZ/2024-09-17-14-21-01/
     RDKit          3D

 29 32  0  0  0  0  0  0  0  0999 V2000
   -7.7129    4.2099   27.0854 C   0  0  0  0  0  0  0  0  0  0  0  0
   -7.7814    5.1722   27.8972 C   0  0  0  0  0  0  0  0  0  0  0  0
   -8.8776    3.8408   26.3416 C   0  0  0  0  0  0  0  0  0  0  0  0
   -9.9844    4.6492   26.4743 C   0  0  0  0  0  0  0  0  0  0  0  0
   -8.8033    6.1375   27.8728 C   0  0  0  0  0  0  0  0  0  0  0  0
   -9.9554    5.8280   27.1737 C   0  0  0  0  0  0  0  0  0  0  0  0
   -8.8740    2.6184   25.5584 C   0  0  0  0  0  0  0  0  0  0  0  0
   -8.2606    1.4639   26.1340 C   0  0  0  0  0  0  0  0  0  0  0  0
   -8.2580    0.2568   25.4753 C   0  0  0  0  0  0  0  0  0  0  0  0
   -8.8603    0.2396   24.2084 C   0  0  0  0  0  0  0  0  0  0  0  0
   -9.4494    1.3597   23.6313 C   0  0  0  0  0  0  0  0  0  0  0  0
   -9.4387    2.5320   24.3273 C   0  0  0  0  0  0  0  0  0  0  0  0
   -9.9898    1.0694   22.3312 C   0  0  0  0  0  0  0  0  0  0  0  0
  -10.4094    2.2033   21.6540 C   0  0  0  0  0  0  0  0  0  0  0  0
  -11.0459    2.0579   20.3509 C   0  0  0  0  0  0  0  0  0  0  0  0
  -11.1749    0.7817   19.8072 C   0  0  0  0  0  0  0  0  0  0  0  0
  -10.7085   -0.3263   20.5171 C   0  0  0  0  0  0  0  0  0  0  0  0
  -10.1361   -0.1559   21.7733 C   0  0  0  0  0  0  0  0  0  0  0  0
   -6.6898    5.6065   28.6107 F   0  0  0  0  0  0  0  0  0  0  0  0
  -10.8548   -1.6396   19.8867 C   0  0  0  0  0  0  0  0  0  0  0  0
  -10.7429   -1.9198   18.8381 N   0  0  0  0  0  0  0  0  0  0  0  0
  -10.8230   -3.2112   18.3433 C   0  0  0  0  0  0  0  0  0  0  0  0
  -11.8711   -2.5195   20.4798 C   0  0  0  0  0  0  0  0  0  0  0  0
  -12.0526   -3.7719   20.1416 C   0  0  0  0  0  0  0  0  0  0  0  0
  -11.5832   -4.1067   18.9016 C   0  0  0  0  0  0  0  0  0  0  0  0
  -11.7999   -5.4335   18.3350 C   0  0  0  0  0  0  0  0  0  0  0  0
  -11.6577   -5.7697   17.3156 N   0  0  0  0  0  0  0  0  0  0  0  0
  -12.3191   -6.4570   19.3089 C   0  0  0  0  0  0  0  0  0  0  0  0
  -12.5730   -7.7005   18.7939 C   0  0  0  0  0  0  0  0  0  0  0  0
  3  7  1  0
 11 13  1  0
  2 19  1  0
 17 20  1  0
 25 26  1  0
 26 27  2  0
 26 28  1  0
 28 29  1  0
 13 14  2  0
 14 15  1  0
 15 16  2  0
 16 17  1  0
 17 18  2  0
 18 13  1  0
  1  2  2  0
  2  5  1  0
  5  6  2  0
  6  4  1  0
  4  3  2  0
  3  1  1  0
  7  8  2  0
  8  9  1  0
  9 10  2  0
 10 11  1  0
 11 12  2  0
 12  7  1  0
 20 21  2  0
 21 22  1  0
 22 25  2  0
 25 24  1  0
 24 23  2  0
 23 20  1  0
M  END
$$$$
