No_1744-complexes_sdf/6BKW-FPZ/2024-09-17-14-21-01/
     RDKit          3D

 26 28  0  0  0  0  0  0  0  0999 V2000
   -7.7129    4.2099   27.0854 C   0  0  0  0  0  0  0  0  0  0  0  0
   -8.2112    3.0637   26.9225 C   0  0  0  0  0  0  0  0  0  0  0  0
   -7.5138    1.9223   27.4249 C   0  0  0  0  0  0  0  0  0  0  0  0
   -8.5309    5.4147   26.8151 C   0  0  0  0  0  0  0  0  0  0  0  0
   -9.6817    5.2393   26.1100 C   0  0  0  0  0  0  0  0  0  0  0  0
  -10.1032    3.9957   25.8534 C   0  0  0  0  0  0  0  0  0  0  0  0
   -9.4035    2.8430   26.2573 C   0  0  0  0  0  0  0  0  0  0  0  0
   -7.0429    0.8587   26.7021 Cl  0  0  0  0  0  0  0  0  0  0  0  0
   -7.9812    6.7663   27.0476 C   0  0  0  0  0  0  0  0  0  0  0  0
   -8.6564    7.8629   26.7071 N   0  0  0  0  0  0  0  0  0  0  0  0
   -7.1502    6.8642   28.0957 O   0  0  0  0  0  0  0  0  0  0  0  0
  -11.3695    3.8411   25.0758 C   0  0  0  0  0  0  0  0  0  0  0  0
  -12.5497    3.3687   25.7105 C   0  0  0  0  0  0  0  0  0  0  0  0
  -12.4965    3.1329   27.1084 C   0  0  0  0  0  0  0  0  0  0  0  0
  -11.7120    3.4362   27.9378 C   0  0  0  0  0  0  0  0  0  0  0  0
  -11.9565    3.1096   29.4645 C   0  0  0  0  0  0  0  0  0  0  0  0
  -13.1557    2.5117   29.7564 C   0  0  0  0  0  0  0  0  0  0  0  0
  -13.8516    2.5998   27.6097 C   0  0  0  0  0  0  0  0  0  0  0  0
  -14.0750    2.3120   28.8534 C   0  0  0  0  0  0  0  0  0  0  0  0
  -11.4653    4.4383   23.8197 C   0  0  0  0  0  0  0  0  0  0  0  0
  -11.1467    3.6546   22.7862 C   0  0  0  0  0  0  0  0  0  0  0  0
  -10.4787    2.5717   22.8312 C   0  0  0  0  0  0  0  0  0  0  0  0
   -9.9954    1.8828   21.6635 C   0  0  0  0  0  0  0  0  0  0  0  0
  -10.2671    2.4550   20.4479 C   0  0  0  0  0  0  0  0  0  0  0  0
  -11.2933    4.2663   21.3812 C   0  0  0  0  0  0  0  0  0  0  0  0
  -10.8981    3.6584   20.3136 C   0  0  0  0  0  0  0  0  0  0  0  0
  2  3  1  0
  3  8  1  0
  4  9  1  0
  9 10  1  0
  9 11  2  0
  6 12  1  0
 12 13  2  3
 13 14  1  0
 12 20  1  0
 20 21  1  0
 21 22  2  0
 22 23  1  0
 23 24  2  0
 24 26  1  0
 26 25  2  0
 25 21  1  0
 14 15  2  0
 15 16  1  0
 16 17  2  0
 17 19  1  0
 19 18  2  0
 18 14  1  0
  1  2  2  0
  2  7  1  0
  7  6  2  0
  6  5  1  0
  5  4  2  0
  4  1  1  0
M  END
$$$$
