No_1910-complexes_sdf/6BKW-FPZ/2024-09-17-14-21-01/
     RDKit          3D

 26 29  0  0  0  0  0  0  0  0999 V2000
   -7.7129    4.2099   27.0854 C   0  0  0  0  0  0  0  0  0  0  0  0
   -8.2112    3.0637   26.9225 C   0  0  0  0  0  0  0  0  0  0  0  0
   -8.5108    5.3904   26.9436 C   0  0  0  0  0  0  0  0  0  0  0  0
   -7.9752    6.6981   27.2112 C   0  0  0  0  0  0  0  0  0  0  0  0
   -9.5213    2.8208   26.4688 C   0  0  0  0  0  0  0  0  0  0  0  0
  -10.2979    3.9327   26.2378 C   0  0  0  0  0  0  0  0  0  0  0  0
   -9.7894    5.2123   26.4395 C   0  0  0  0  0  0  0  0  0  0  0  0
   -7.3384    1.8199   27.1767 C   0  0  0  0  0  0  0  0  0  0  0  0
   -6.0583    2.0002   27.7739 C   0  0  0  0  0  0  0  0  0  0  0  0
   -5.2703    0.8342   28.0445 C   0  0  0  0  0  0  0  0  0  0  0  0
   -5.7662   -0.3982   27.8341 C   0  0  0  0  0  0  0  0  0  0  0  0
   -7.7756    0.5203   27.0159 C   0  0  0  0  0  0  0  0  0  0  0  0
   -7.0636   -0.5304   27.3550 C   0  0  0  0  0  0  0  0  0  0  0  0
   -8.6435    7.8088   26.8355 N   0  0  0  0  0  0  0  0  0  0  0  0
   -6.7817    6.8336   27.8044 N   0  0  0  0  0  0  0  0  0  0  0  0
   -3.9296    1.0632   28.6304 C   0  0  0  0  0  0  0  0  0  0  0  0
   -3.3548    0.2055   29.2548 O   0  0  0  0  0  0  0  0  0  0  0  0
   -2.4459   -0.7457   28.8502 C   0  0  0  0  0  0  0  0  0  0  0  0
  -11.6159    3.7752   25.6576 C   0  0  0  0  0  0  0  0  0  0  0  0
  -11.9502    2.5780   25.3686 C   0  0  0  0  0  0  0  0  0  0  0  0
  -12.8188    2.2680   24.3624 C   0  0  0  0  0  0  0  0  0  0  0  0
  -13.0223    0.9002   24.0116 C   0  0  0  0  0  0  0  0  0  0  0  0
  -12.3181   -0.0601   24.6589 C   0  0  0  0  0  0  0  0  0  0  0  0
  -11.4380    0.2456   25.6372 C   0  0  0  0  0  0  0  0  0  0  0  0
  -11.1909    1.5320   25.9908 C   0  0  0  0  0  0  0  0  0  0  0  0
  -10.0558    1.6603   26.3208 N   0  0  0  0  0  0  0  0  0  0  0  0
  3  4  1  0
  2  8  1  0
  4 14  2  0
  4 15  1  0
 10 16  1  0
 16 17  1  0
 17 18  1  0
  6 19  1  0
 19 20  1  0
  5 26  1  0
 25 26  1  0
 20 21  2  0
 21 22  1  0
 22 23  2  0
 23 24  1  0
 24 25  2  0
 25 20  1  0
  1  2  2  0
  2  5  1  0
  5  6  2  0
  6  7  1  0
  7  3  2  0
  3  1  1  0
  8  9  2  0
  9 10  1  0
 10 11  2  0
 11 13  1  0
 13 12  2  0
 12  8  1  0
M  END
$$$$
