No_1171-complexes_sdf/6BKW-FPZ/2024-09-17-14-21-01/
     RDKit          3D

 15 16  0  0  0  0  0  0  0  0999 V2000
   -7.9040    3.9820   27.1177 C   0  0  0  0  0  0  0  0  0  0  0  0
   -7.8663    4.8694   27.9238 C   0  0  0  0  0  0  0  0  0  0  0  0
   -9.0501    3.8017   26.2617 C   0  0  0  0  0  0  0  0  0  0  0  0
   -9.1826    2.7026   25.3575 C   0  0  1  0  0  0  0  0  0  0  0  0
   -8.6940    6.0131   27.8614 C   0  0  0  0  0  0  0  0  0  0  0  0
   -9.9755    4.8547   26.2361 C   0  0  0  0  0  0  0  0  0  0  0  0
   -9.7463    5.9398   27.0364 C   0  0  0  0  0  0  0  0  0  0  0  0
   -8.7003    1.4603   25.7663 C   0  0  0  0  0  0  0  0  0  0  0  0
   -9.8809    2.8005   24.1386 C   0  0  0  0  0  0  0  0  0  0  0  0
   -8.1371    1.3184   26.9109 N   0  0  0  0  0  0  0  0  0  0  0  0
   -8.7434    0.4328   24.8446 C   0  0  0  0  0  0  0  0  0  0  0  0
   -7.6271   -0.0029   27.2886 C   0  0  0  0  0  0  0  0  0  0  0  0
   -7.9997   -0.9960   26.6374 C   0  0  0  0  0  0  0  0  0  0  0  0
   -8.6142   -0.9097   25.7167 C   0  0  0  0  0  0  0  0  0  0  0  0
  -10.6857    4.2394   23.6736 Cl  0  0  0  0  0  0  0  0  0  0  0  0
  3  4  1  0
  4  8  1  0
  4  9  1  1
  9 15  1  0
  8 10  2  0
 10 12  1  0
 12 13  2  0
 13 14  1  0
 14 11  2  0
 11  8  1  0
  1  2  2  0
  2  5  1  0
  5  7  2  0
  7  6  1  0
  6  3  2  0
  3  1  1  0
M  END
$$$$
