No_1161-complexes_sdf/6BKW-FPZ/2024-09-17-14-21-01/
     RDKit          3D

 34 37  0  0  0  0  0  0  0  0999 V2000
   -7.7129    4.2099   27.0854 C   0  0  0  0  0  0  0  0  0  0  0  0
   -7.7814    5.1722   27.8972 C   0  0  1  0  0  0  0  0  0  0  0  0
   -7.3155    2.9699   27.6145 C   0  0  0  0  0  0  0  0  0  0  0  0
   -7.6814    1.8188   26.9581 C   0  0  0  0  0  0  0  0  0  0  0  0
   -8.7493    1.8056   26.3403 C   0  0  0  0  0  0  0  0  0  0  0  0
   -9.3899    2.9750   25.9038 C   0  0  0  0  0  0  0  0  0  0  0  0
   -8.9604    4.1020   26.4096 C   0  0  0  0  0  0  0  0  0  0  0  0
   -7.0986    5.2783   29.0181 N   0  0  0  0  0  0  0  0  0  0  0  0
   -7.8594    6.5024   27.4246 F   0  0  0  0  0  0  0  0  0  0  0  0
  -10.5226    3.1443   24.8825 C   0  0  0  0  0  0  0  0  0  0  0  0
  -11.7119    3.2877   25.3412 C   0  0  0  0  0  0  0  0  0  0  0  0
  -10.1994    2.9228   23.5292 C   0  0  0  0  0  0  0  0  0  0  0  0
  -11.0870    3.1788   22.5211 C   0  0  0  0  0  0  0  0  0  0  0  0
  -12.7606    3.5311   24.3340 C   0  0  0  0  0  0  0  0  0  0  0  0
  -12.4494    3.4922   22.9821 C   0  0  0  0  0  0  0  0  0  0  0  0
   -6.9479    0.5603   27.4257 C   0  0  0  0  0  0  0  0  0  0  0  0
   -5.5711    0.5625   27.7152 C   0  0  0  0  0  0  0  0  0  0  0  0
   -4.9162   -0.5202   28.2680 C   0  0  0  0  0  0  0  0  0  0  0  0
   -5.6663   -1.6814   28.4292 C   0  0  0  0  0  0  0  0  0  0  0  0
   -7.5759   -0.6571   27.7100 C   0  0  0  0  0  0  0  0  0  0  0  0
   -9.0120   -0.6584   27.4621 C   0  0  0  0  0  0  0  0  0  0  0  0
   -6.9862   -1.7322   28.2307 C   0  0  0  0  0  0  0  0  0  0  0  0
   -9.5819   -1.4429   26.5249 C   0  0  0  0  0  0  0  0  0  0  0  0
  -10.9694   -1.4568   26.3085 C   0  0  0  0  0  0  0  0  0  0  0  0
  -11.8086   -0.6631   27.1274 C   0  0  0  0  0  0  0  0  0  0  0  0
  -11.2715    0.1166   28.1586 C   0  0  0  0  0  0  0  0  0  0  0  0
   -9.8913    0.1508   28.3460 C   0  0  0  0  0  0  0  0  0  0  0  0
   -3.4438   -0.4466   28.5262 C   0  0  0  0  0  0  0  0  0  0  0  0
   -2.9546    0.4743   27.7783 F   0  0  0  0  0  0  0  0  0  0  0  0
   -2.8315   -1.6150   28.3011 F   0  0  0  0  0  0  0  0  0  0  0  0
   -3.2609   -0.1062   29.8452 F   0  0  0  0  0  0  0  0  0  0  0  0
  -12.1922    0.9214   28.9866 C   0  0  0  0  0  0  0  0  0  0  0  0
  -11.9744    2.1259   29.1810 O   0  0  0  0  0  0  0  0  0  0  0  0
  -13.2322    0.3644   29.5054 O   0  0  0  0  0  0  0  0  0  0  0  0
  1  2  1  0
  2  8  1  1
  2  9  1  0
  6 10  1  0
  4 16  1  0
 20 21  1  0
 18 28  1  0
 28 29  1  0
 28 30  1  0
 28 31  1  0
 26 32  1  0
 32 33  2  0
 32 34  1  0
 21 23  2  0
 23 24  1  0
 24 25  2  0
 25 26  1  0
 26 27  2  0
 27 21  1  0
 10 11  2  0
 11 14  1  0
 14 15  2  0
 15 13  1  0
 13 12  2  0
 12 10  1  0
 16 17  2  0
 17 18  1  0
 18 19  2  0
 19 22  1  0
 22 20  2  0
 20 16  1  0
  1  3  2  0
  3  4  1  0
  4  5  2  0
  5  6  1  0
  6  7  2  0
  7  1  1  0
M  END
$$$$
