No_1645-complexes_sdf/6BKW-FPZ/2024-09-17-14-21-01/
     RDKit          3D

  8  8  0  0  0  0  0  0  0  0999 V2000
   -7.9040    3.9820   27.1177 C   0  0  0  0  0  0  0  0  0  0  0  0
   -8.2057    2.8231   26.8733 C   0  0  0  0  0  0  0  0  0  0  0  0
   -8.7695    5.0740   26.7916 C   0  0  0  0  0  0  0  0  0  0  0  0
   -9.7106    4.8936   25.8755 C   0  0  0  0  0  0  0  0  0  0  0  0
   -9.2219    2.4558   25.9830 C   0  0  0  0  0  0  0  0  0  0  0  0
   -9.9766    3.5921   25.5076 C   0  0  0  0  0  0  0  0  0  0  0  0
   -8.4111    6.3332   27.1089 F   0  0  0  0  0  0  0  0  0  0  0  0
   -7.4069    1.7697   27.3409 F   0  0  0  0  0  0  0  0  0  0  0  0
  3  7  1  0
  2  8  1  0
  1  2  2  0
  2  5  1  0
  5  6  2  0
  6  4  1  0
  4  3  2  0
  3  1  1  0
M  END
$$$$
