No_1582-complexes_sdf/6BKW-FPZ/2024-09-17-14-21-01/
     RDKit          3D

 29 33  0  0  0  0  0  0  0  0999 V2000
   -7.9040    3.9820   27.1177 C   0  0  0  0  0  0  0  0  0  0  0  0
   -7.8663    4.8694   27.9238 C   0  0  0  0  0  0  0  0  0  0  0  0
   -9.0501    3.8017   26.2617 C   0  0  0  0  0  0  0  0  0  0  0  0
  -10.0189    4.7608   26.3707 C   0  0  0  0  0  0  0  0  0  0  0  0
   -8.6973    5.9722   27.8968 C   0  0  0  0  0  0  0  0  0  0  0  0
   -9.8216    5.8946   27.1241 C   0  0  0  0  0  0  0  0  0  0  0  0
   -9.1437    2.6293   25.4175 C   0  0  0  0  0  0  0  0  0  0  0  0
   -9.9828    2.7153   24.2925 C   0  0  0  0  0  0  0  0  0  0  0  0
  -10.6812    3.9127   24.0789 C   0  0  0  0  0  0  0  0  0  0  0  0
  -10.8795    4.8426   25.1660 C   0  0  0  0  0  0  0  0  0  0  0  0
  -11.4595    3.8952   22.9502 C   0  0  0  0  0  0  0  0  0  0  0  0
  -10.9475    3.6421   21.8040 C   0  0  0  0  0  0  0  0  0  0  0  0
  -11.6331    3.7091   20.5105 C   0  0  0  0  0  0  0  0  0  0  0  0
  -12.9670    4.1291   20.5363 C   0  0  0  0  0  0  0  0  0  0  0  0
  -12.8029    4.4699   22.9010 C   0  0  0  0  0  0  0  0  0  0  0  0
  -13.5304    4.5373   21.7918 C   0  0  0  0  0  0  0  0  0  0  0  0
   -6.9667    2.9114   27.2401 N   0  0  0  0  0  0  0  0  0  0  0  0
   -5.7583    3.0329   27.5840 C   0  0  0  0  0  0  0  0  0  0  0  0
   -5.0303    1.7779   27.8499 C   0  0  0  0  0  0  0  0  0  0  0  0
   -5.7913    0.6712   27.8315 C   0  0  1  0  0  0  0  0  0  0  0  0
   -7.5073    1.4960   27.2322 C   0  0  2  0  0  0  0  0  0  0  0  0
   -7.4556    0.8688   26.2869 C   0  0  0  0  0  0  0  0  0  0  0  0
   -6.3855   -0.1401   26.4765 C   0  0  0  0  0  0  0  0  0  0  0  0
   -8.7736    0.7288   25.4685 C   0  0  0  0  0  0  0  0  0  0  0  0
   -8.3312    2.1620   25.0057 O   0  0  0  0  0  0  0  0  0  0  0  0
   -8.2188   -0.1741   24.3754 C   0  0  0  0  0  0  0  0  0  0  0  0
   -9.9529    0.3379   26.0914 C   0  0  0  0  0  0  0  0  0  0  0  0
   -8.5697    1.8786   23.4523 C   0  0  0  0  0  0  0  0  0  0  0  0
  -10.8580    1.6483   24.1376 F   0  0  0  0  0  0  0  0  0  0  0  0
  9 11  1  0
  1 17  1  0
 17 18  1  0
 18 19  2  0
 20 19  1  6
 21 17  1  6
 20 21  1  0
 21 22  1  0
 20 23  1  0
 22 23  2  0
 22 24  1  0
  7 25  1  0
 24 26  1  0
 24 27  1  0
 25 28  1  0
  8 29  1  0
  4 10  2  0
 10  9  1  0
  9  8  2  0
  8  7  1  0
  7  3  2  0
 11 12  2  0
 12 13  1  0
 13 14  2  0
 14 16  1  0
 16 15  2  0
 15 11  1  0
  1  2  2  0
  2  5  1  0
  5  6  2  0
  6  4  1  0
  4  3  1  0
  3  1  1  0
M  END
$$$$
