No_1563-complexes_sdf/6BKW-FPZ/2024-09-17-14-21-01/
     RDKit          3D

 27 30  0  0  0  0  0  0  0  0999 V2000
   -7.9040    3.9820   27.1177 C   0  0  0  0  0  0  0  0  0  0  0  0
   -8.2057    2.8231   26.8733 C   0  0  0  0  0  0  0  0  0  0  0  0
   -7.4766    1.7477   27.4593 C   0  0  0  0  0  0  0  0  0  0  0  0
   -6.7221    4.3631   27.8544 C   0  0  0  0  0  0  0  0  0  0  0  0
   -6.1698    2.0708   27.9540 C   0  0  0  0  0  0  0  0  0  0  0  0
   -5.8496    3.3886   28.1848 C   0  0  0  0  0  0  0  0  0  0  0  0
   -8.7560    5.1534   26.7276 C   0  0  0  0  0  0  0  0  0  0  0  0
   -9.5410    5.0632   25.5324 C   0  0  0  0  0  0  0  0  0  0  0  0
   -8.6407    6.4391   27.3093 C   0  0  0  0  0  0  0  0  0  0  0  0
   -5.2961    0.9627   28.3827 C   0  0  0  0  0  0  0  0  0  0  0  0
   -4.0625    1.1915   28.9514 C   0  0  0  0  0  0  0  0  0  0  0  0
   -3.2357    0.1098   29.3384 C   0  0  0  0  0  0  0  0  0  0  0  0
   -3.6300   -1.1781   29.0722 C   0  0  0  0  0  0  0  0  0  0  0  0
   -5.7608   -0.3829   28.1707 C   0  0  0  0  0  0  0  0  0  0  0  0
   -4.9268   -1.2940   28.5109 C   0  0  0  0  0  0  0  0  0  0  0  0
  -10.2162    3.9326   25.1992 C   0  0  1  0  0  0  0  0  0  0  0  0
   -9.9675    3.2389   24.0135 C   0  0  0  0  0  0  0  0  0  0  0  0
  -10.6255    2.0710   23.6340 C   0  0  0  0  0  0  0  0  0  0  0  0
  -10.2884    1.4495   22.4498 C   0  0  0  0  0  0  0  0  0  0  0  0
   -9.4673    2.1101   21.5287 C   0  0  0  0  0  0  0  0  0  0  0  0
   -9.1828    3.4270   21.7106 C   0  0  0  0  0  0  0  0  0  0  0  0
   -9.5053    4.0402   22.9641 C   0  0  0  0  0  0  0  0  0  0  0  0
  -10.6876    3.1058   26.2983 C   0  0  2  0  0  0  0  0  0  0  0  0
  -12.0822    2.7589   26.3749 C   0  0  0  0  0  0  0  0  0  0  0  0
   -9.8575    2.7236   27.4245 C   0  0  0  0  0  0  0  0  0  0  0  0
  -13.0040    3.6150   26.2927 C   0  0  0  0  0  0  0  0  0  0  0  0
  -14.3939    3.4308   26.3966 C   0  0  0  0  0  0  0  0  0  0  0  0
  1  7  1  0
  7  8  2  0
  7  9  1  0
  5 10  1  0
  8 16  1  0
 16 23  1  0
 23 24  1  0
  2 25  1  0
 23 25  1  1
 24 26  2  3
 26 27  1  0
 16 17  1  6
 17 18  2  0
 18 19  1  0
 19 20  2  0
 20 21  1  0
 21 22  2  0
 22 17  1  0
  1  2  1  0
  2  3  2  0
  3  5  1  0
  5  6  2  0
  6  4  1  0
  4  1  2  0
 10 11  2  0
 11 12  1  0
 12 13  2  0
 13 15  1  0
 15 14  2  0
 14 10  1  0
M  END
$$$$
