No_126-complexes_sdf/6BKW-FPZ/2024-09-17-14-21-01/
     RDKit          3D

 20 21  0  0  0  0  0  0  0  0999 V2000
   -7.9040    3.9820   27.1177 C   0  0  0  0  0  0  0  0  0  0  0  0
   -7.8663    4.8694   27.9238 C   0  0  0  0  0  0  0  0  0  0  0  0
   -9.0491    3.8523   26.2542 C   0  0  0  0  0  0  0  0  0  0  0  0
   -8.7661    5.9491   27.9690 C   0  0  0  0  0  0  0  0  0  0  0  0
   -9.9295    4.8502   26.2323 C   0  0  0  0  0  0  0  0  0  0  0  0
   -9.8077    5.9288   27.0933 C   0  0  0  0  0  0  0  0  0  0  0  0
   -9.0726    2.7074   25.3087 C   0  0  0  0  0  0  0  0  0  0  0  0
   -9.9788    1.8124   25.6868 C   0  0  2  0  0  0  0  0  0  0  0  0
   -9.8886    0.6639   25.0471 C   0  0  0  0  0  0  0  0  0  0  0  0
   -8.7337    0.1710   24.6581 C   0  0  0  0  0  0  0  0  0  0  0  0
   -7.9109   -0.5385   25.1286 C   0  0  0  0  0  0  0  0  0  0  0  0
   -6.5888   -0.8878   24.5767 C   0  0  0  0  0  0  0  0  0  0  0  0
   -5.5614   -1.4419   25.3191 C   0  0  0  0  0  0  0  0  0  0  0  0
   -5.7942   -1.6532   26.7026 C   0  0  0  0  0  0  0  0  0  0  0  0
   -6.9849   -1.2893   27.3046 C   0  0  0  0  0  0  0  0  0  0  0  0
   -7.9494   -0.6244   26.5670 C   0  0  0  0  0  0  0  0  0  0  0  0
   -8.4820    0.6681   23.1428 C   0  0  0  0  0  0  0  0  0  0  0  0
  -11.1023    2.0353   26.5773 C   0  0  0  0  0  0  0  0  0  0  0  0
  -12.2112    2.6491   26.4324 C   0  0  0  0  0  0  0  0  0  0  0  0
  -13.2011    2.8555   27.3672 C   0  0  0  0  0  0  0  0  0  0  0  0
  3  7  1  0
  8  7  1  6
  8  9  1  0
  9 10  1  0
 10 17  1  0
  8 18  1  0
 18 19  2  3
 19 20  1  0
 10 11  1  0
 11 12  2  0
 12 13  1  0
 13 14  2  0
 14 15  1  0
 15 16  2  0
 16 11  1  0
  1  2  2  0
  2  4  1  0
  4  6  2  0
  6  5  1  0
  5  3  2  0
  3  1  1  0
M  END
$$$$
