No_1583-complexes_sdf/6BKW-FPZ/2024-09-17-14-21-01/
     RDKit          3D

 17 18  0  0  0  0  0  0  0  0999 V2000
   -7.7129    4.2099   27.0854 C   0  0  0  0  0  0  0  0  0  0  0  0
   -8.2112    3.0637   26.9225 C   0  0  0  0  0  0  0  0  0  0  0  0
   -8.5108    5.3904   26.9436 C   0  0  0  0  0  0  0  0  0  0  0  0
   -9.7256    5.1955   26.3518 C   0  0  0  0  0  0  0  0  0  0  0  0
   -9.4995    2.8258   26.4878 C   0  0  0  0  0  0  0  0  0  0  0  0
  -10.2542    3.9691   26.2055 C   0  0  0  0  0  0  0  0  0  0  0  0
   -7.9135    6.7086   27.1885 C   0  0  0  0  0  0  0  0  0  0  0  0
   -7.3624    1.8198   27.2561 C   0  0  0  0  0  0  0  0  0  0  0  0
   -6.0561    1.9823   27.7522 C   0  0  0  0  0  0  0  0  0  0  0  0
   -5.2693    0.8235   28.0672 C   0  0  0  0  0  0  0  0  0  0  0  0
   -5.6391   -0.1933   27.9046 C   0  0  0  0  0  0  0  0  0  0  0  0
   -7.7311    0.5067   27.1177 C   0  0  0  0  0  0  0  0  0  0  0  0
   -6.9737   -0.5118   27.4542 C   0  0  0  0  0  0  0  0  0  0  0  0
   -8.6165    7.8894   26.7024 C   0  0  0  0  0  0  0  0  0  0  0  0
   -3.9721    1.1944   28.5363 O   0  0  0  0  0  0  0  0  0  0  0  0
   -6.6571    6.7017   26.6994 F   0  0  0  0  0  0  0  0  0  0  0  0
   -7.6331    6.6989   28.5626 F   0  0  0  0  0  0  0  0  0  0  0  0
  3  7  1  0
  2  8  1  0
  7 14  1  0
 10 15  1  0
  7 16  1  0
  7 17  1  0
  1  2  2  0
  2  5  1  0
  5  6  2  0
  6  4  1  0
  4  3  2  0
  3  1  1  0
  8  9  2  0
  9 10  1  0
 10 11  2  0
 11 13  1  0
 13 12  2  0
 12  8  1  0
M  END
$$$$
