No_1538-complexes_sdf/6BKW-FPZ/2024-09-17-14-21-01/
     RDKit          3D

 40 43  0  0  0  0  0  0  0  0999 V2000
   -7.7129    4.2099   27.0854 C   0  0  0  0  0  0  0  0  0  0  0  0
   -8.2112    3.0637   26.9225 C   0  0  0  0  0  0  0  0  0  0  0  0
   -9.4446    2.8304   26.1868 C   0  0  0  0  0  0  0  0  0  0  0  0
   -8.4697    5.3956   26.7238 C   0  0  0  0  0  0  0  0  0  0  0  0
   -9.6172    5.2111   25.9513 C   0  0  0  0  0  0  0  0  0  0  0  0
  -10.0424    3.9782   25.6873 C   0  0  0  0  0  0  0  0  0  0  0  0
   -7.9172    6.7181   27.0124 C   0  0  0  0  0  0  0  0  0  0  0  0
   -8.4852    7.8665   26.4359 C   0  0  0  0  0  0  0  0  0  0  0  0
   -7.3549    2.0112   27.4417 N   0  0  0  0  0  0  0  0  0  0  0  0
   -6.0696    2.0286   27.4983 C   0  0  0  0  0  0  0  0  0  0  0  0
   -5.4236    0.8155   28.0642 C   0  0  0  0  0  0  0  0  0  0  0  0
   -6.4080   -0.1802   28.0494 C   0  0  0  0  0  0  0  0  0  0  0  0
   -7.7294    0.5997   27.5774 C   0  0  0  0  0  0  0  0  0  0  0  0
   -4.0560    0.6686   28.4257 C   0  0  0  0  0  0  0  0  0  0  0  0
   -3.1893    1.1641   27.8550 O   0  0  0  0  0  0  0  0  0  0  0  0
   -3.8218    0.0205   29.6645 N   0  0  0  0  0  0  0  0  0  0  0  0
   -4.7232   -0.5068   30.5860 C   0  0  0  0  0  0  0  0  0  0  0  0
   -4.8121   -1.8269   30.7038 C   0  0  0  0  0  0  0  0  0  0  0  0
   -4.6245   -2.2599   31.8075 C   0  0  0  0  0  0  0  0  0  0  0  0
   -4.8362   -1.5002   33.1476 C   0  0  0  0  0  0  0  0  0  0  0  0
   -4.9760   -0.1196   32.8573 C   0  0  0  0  0  0  0  0  0  0  0  0
   -4.6917    0.3405   31.7688 C   0  0  0  0  0  0  0  0  0  0  0  0
   -4.9974   -2.0902   34.4523 C   0  0  0  0  0  0  0  0  0  0  0  0
   -4.6495   -1.5059   35.3637 O   0  0  0  0  0  0  0  0  0  0  0  0
   -6.0182   -3.0504   34.5881 N   0  0  0  0  0  0  0  0  0  0  0  0
   -6.3531   -3.5532   35.9143 C   0  0  0  0  0  0  0  0  0  0  0  0
   -7.4998   -4.0207   36.0534 C   0  0  0  0  0  0  0  0  0  0  0  0
   -8.3208   -4.3404   34.9419 C   0  0  0  0  0  0  0  0  0  0  0  0
   -7.9821   -3.8388   33.6771 C   0  0  2  0  0  0  0  0  0  0  0  0
   -6.9126   -3.1159   33.6244 C   0  0  0  0  0  0  0  0  0  0  0  0
   -8.7866    0.0829   27.4624 O   0  0  0  0  0  0  0  0  0  0  0  0
   -6.9687    6.7644   27.9199 O   0  0  0  0  0  0  0  0  0  0  0  0
   -8.9906   -4.0382   32.6023 C   0  0  0  0  0  0  0  0  0  0  0  0
  -10.0063   -3.7884   32.5387 N   0  0  0  0  0  0  0  0  0  0  0  0
  -10.7240   -3.0116   32.2133 C   0  0  0  0  0  0  0  0  0  0  0  0
  -12.1287   -2.7592   32.5719 C   0  0  0  0  0  0  0  0  0  0  0  0
  -12.9523   -1.8466   32.3022 C   0  0  0  0  0  0  0  0  0  0  0  0
  -13.6909   -1.6013   31.6456 C   0  0  0  0  0  0  0  0  0  0  0  0
  -14.0241   -2.5012   30.6143 C   0  0  0  0  0  0  0  0  0  0  0  0
  -15.0002   -2.1661   29.6256 C   0  0  0  0  0  0  0  0  0  0  0  0
  4  7  1  0
  7  8  1  0
  2  9  1  0
  9 10  1  0
 10 11  2  0
 11 12  1  0
  9 13  1  0
 12 13  1  0
 11 14  1  0
 14 15  2  0
 14 16  1  0
 16 17  1  0
 20 23  1  0
 23 24  2  0
 23 25  1  0
 25 26  1  0
 27 28  1  0
 25 30  1  0
 29 30  1  0
 13 31  2  0
  7 32  2  0
 29 33  1  1
 33 34  1  0
 34 35  1  0
 35 36  2  3
 36 37  1  0
 37 38  1  0
 38 39  2  3
 39 40  1  0
 26 27  1  0
 28 29  1  0
 17 18  2  0
 18 19  1  0
 19 20  2  0
 20 21  1  0
 21 22  2  0
 22 17  1  0
  1  2  2  0
  2  3  1  0
  3  6  2  0
  6  5  1  0
  5  4  2  0
  4  1  1  0
M  END
$$$$
