No_1944-complexes_sdf/6BKW-FPZ/2024-09-17-14-21-01/
     RDKit          3D

 27 31  0  0  0  0  0  0  0  0999 V2000
   -7.7129    4.2099   27.0854 C   0  0  0  0  0  0  0  0  0  0  0  0
   -8.9133    4.4736   27.0998 C   0  0  0  0  0  0  0  0  0  0  0  0
   -9.4643    5.5426   27.7628 C   0  0  0  0  0  0  0  0  0  0  0  0
   -9.8091    3.6358   26.2841 C   0  0  0  0  0  0  0  0  0  0  0  0
  -10.5514    4.0993   25.5100 C   0  0  0  0  0  0  0  0  0  0  0  0
   -7.2796    2.8365   27.0253 C   0  0  0  0  0  0  0  0  0  0  0  0
   -8.0855    1.9285   26.3525 C   0  0  0  0  0  0  0  0  0  0  0  0
   -9.3338    2.3717   25.9334 C   0  0  0  0  0  0  0  0  0  0  0  0
  -11.9210    3.9026   25.7517 C   0  0  0  0  0  0  0  0  0  0  0  0
  -12.4931    2.9703   25.6146 C   0  0  0  0  0  0  0  0  0  0  0  0
  -13.4683    2.5646   25.8169 C   0  0  0  0  0  0  0  0  0  0  0  0
  -14.0361    1.2048   25.5939 C   0  0  0  0  0  0  0  0  0  0  0  0
  -13.1582    0.3787   25.0269 C   0  0  0  0  0  0  0  0  0  0  0  0
  -11.9526    0.7233   24.6716 C   0  0  0  0  0  0  0  0  0  0  0  0
  -11.4904    1.9549   24.9074 C   0  0  0  0  0  0  0  0  0  0  0  0
  -10.2463    1.4856   25.2965 C   0  0  1  0  0  0  0  0  0  0  0  0
   -9.8307    0.1862   24.8452 C   0  0  0  0  0  0  0  0  0  0  0  0
  -10.8331   -0.4433   24.7033 C   0  0  0  0  0  0  0  0  0  0  0  0
  -11.1036   -1.6275   24.0584 C   0  0  0  0  0  0  0  0  0  0  0  0
  -10.3772   -2.5312   24.2295 C   0  0  0  0  0  0  0  0  0  0  0  0
  -12.2685   -1.7730   23.2034 C   0  0  0  0  0  0  0  0  0  0  0  0
  -10.5510   -3.8584   23.6916 C   0  0  0  0  0  0  0  0  0  0  0  0
  -12.4999   -3.0290   22.6615 C   0  0  0  0  0  0  0  0  0  0  0  0
  -11.6492   -4.0289   22.8761 C   0  0  0  0  0  0  0  0  0  0  0  0
  -11.9187   -5.3297   22.2577 C   0  0  0  0  0  0  0  0  0  0  0  0
  -11.4244   -6.3655   22.5294 O   0  0  0  0  0  0  0  0  0  0  0  0
  -12.8714   -5.3943   21.4133 O   0  0  0  0  0  0  0  0  0  0  0  0
  2  3  1  0
  4  5  1  0
  5  9  1  0
  8 16  1  0
 15 16  1  0
 16 17  1  6
 14 18  1  0
 17 18  2  0
 18 19  1  0
 24 25  1  0
 25 26  1  0
 25 27  2  0
  9 10  1  0
 19 20  2  0
 20 22  1  0
 22 24  2  0
 24 23  1  0
 23 21  2  0
 21 19  1  0
  1  2  2  0
  2  4  1  0
  4  8  2  0
  8  7  1  0
  7  6  2  0
  6  1  1  0
 10 11  2  0
 11 12  1  0
 12 13  2  0
 13 14  1  0
 14 15  2  0
 15 10  1  0
M  END
$$$$
