No_10-complexes_sdf/6BKW-FPZ/2024-09-17-14-21-01/
     RDKit          3D

 16 16  0  0  0  0  0  0  0  0999 V2000
   -7.9040    3.9820   27.1177 C   0  0  0  0  0  0  0  0  0  0  0  0
   -7.8663    4.8694   27.9238 C   0  0  0  0  0  0  0  0  0  0  0  0
   -9.0953    3.1697   27.0532 C   0  0  0  0  0  0  0  0  0  0  0  0
   -9.1405    2.0104   26.1761 C   0  0  0  0  0  0  0  0  0  0  0  0
   -6.7288    5.7941   27.9701 C   0  0  0  0  0  0  0  0  0  0  0  0
   -8.2649    0.9862   26.4894 C   0  0  0  0  0  0  0  0  0  0  0  0
   -8.0570   -0.0405   25.5578 C   0  0  0  0  0  0  0  0  0  0  0  0
   -8.7327    0.0634   24.3391 C   0  0  0  0  0  0  0  0  0  0  0  0
   -9.5841    1.1097   24.0168 C   0  0  0  0  0  0  0  0  0  0  0  0
   -9.6977    2.1478   24.9482 C   0  0  0  0  0  0  0  0  0  0  0  0
  -10.1885    3.4232   27.7381 C   0  0  0  0  0  0  0  0  0  0  0  0
  -11.1759    4.1035   27.3874 C   0  0  0  0  0  0  0  0  0  0  0  0
  -12.3791    4.3020   28.2271 C   0  0  0  0  0  0  0  0  0  0  0  0
  -12.5075    3.4210   29.3562 C   0  0  0  0  0  0  0  0  0  0  0  0
  -11.4542    2.4933   29.6073 C   0  0  0  0  0  0  0  0  0  0  0  0
  -10.3617    2.4431   28.8924 C   0  0  0  0  0  0  0  0  0  0  0  0
  1  2  2  3
  1  3  1  0
  3  4  1  0
  2  5  1  0
  3 11  1  0
 11 12  2  3
 12 13  1  0
 13 14  2  3
 14 15  1  0
 15 16  2  0
  4  6  2  0
  6  7  1  0
  7  8  2  0
  8  9  1  0
  9 10  2  0
 10  4  1  0
M  END
$$$$
