No_1874-complexes_sdf/6BKW-FPZ/2024-09-17-14-21-01/
     RDKit          3D

 39 44  0  0  0  0  0  0  0  0999 V2000
   -7.2496    3.8871   27.4508 C   0  0  0  0  0  0  0  0  0  0  0  0
   -7.6161    2.7143   27.1523 C   0  0  0  0  0  0  0  0  0  0  0  0
   -6.9719    1.5838   27.5324 C   0  0  0  0  0  0  0  0  0  0  0  0
   -7.4590    0.2827   27.2615 C   0  0  0  0  0  0  0  0  0  0  0  0
   -8.7521    2.5117   26.3068 C   0  0  0  0  0  0  0  0  0  0  0  0
   -9.2100    1.2391   25.9794 C   0  0  0  0  0  0  0  0  0  0  0  0
   -8.5134    0.1313   26.5112 C   0  0  0  0  0  0  0  0  0  0  0  0
   -8.0343    5.0565   27.1688 C   0  0  0  0  0  0  0  0  0  0  0  0
   -9.1387    5.0244   26.3111 C   0  0  0  0  0  0  0  0  0  0  0  0
   -9.5547    3.6826   25.9029 C   0  0  0  0  0  0  0  0  0  0  0  0
   -7.5026    6.6235   27.7515 Cl  0  0  0  0  0  0  0  0  0  0  0  0
  -10.6630    3.6139   25.0005 C   0  0  0  0  0  0  0  0  0  0  0  0
  -10.5796    3.9390   23.6857 C   0  0  0  0  0  0  0  0  0  0  0  0
  -11.6203    3.9233   22.7745 C   0  0  0  0  0  0  0  0  0  0  0  0
  -11.9730    3.7640   25.5584 C   0  0  0  0  0  0  0  0  0  0  0  0
  -13.1012    3.7652   24.7502 C   0  0  0  0  0  0  0  0  0  0  0  0
  -12.9183    3.9729   23.3645 C   0  0  0  0  0  0  0  0  0  0  0  0
   -6.7029   -0.8923   27.7980 C   0  0  0  0  0  0  0  0  0  0  0  0
   -7.3326   -1.8542   28.5039 C   0  0  0  0  0  0  0  0  0  0  0  0
   -6.6519   -2.8889   29.1553 C   0  0  0  0  0  0  0  0  0  0  0  0
   -5.2585   -2.8804   29.1410 C   0  0  0  0  0  0  0  0  0  0  0  0
   -4.5784   -1.8650   28.4993 C   0  0  0  0  0  0  0  0  0  0  0  0
   -5.2470   -0.8310   27.9255 C   0  0  0  0  0  0  0  0  0  0  0  0
  -14.0056    4.0926   22.5441 O   0  0  0  0  0  0  0  0  0  0  0  0
  -13.9481    4.0276   21.3131 C   0  0  0  0  0  0  0  0  0  0  0  0
  -11.4705    4.1101   21.4159 C   0  0  1  0  0  0  0  0  0  0  0  0
  -10.1950    4.1034   20.7740 C   0  0  0  0  0  0  0  0  0  0  0  0
  -12.7872    3.9389   20.6694 C   0  0  0  0  0  0  0  0  0  0  0  0
  -14.3961    3.8433   25.3857 C   0  0  2  0  0  0  0  0  0  0  0  0
  -15.5615    3.3950   24.9634 Cl  0  0  0  0  0  0  0  0  0  0  0  0
  -14.3307    4.7705   26.6270 C   0  0  0  0  0  0  0  0  0  0  0  0
  -13.5485    4.4454   27.7477 C   0  0  0  0  0  0  0  0  0  0  0  0
  -12.1638    4.3667   27.8875 C   0  0  0  0  0  0  0  0  0  0  0  0
  -11.8314    4.0170   27.0363 C   0  0  0  0  0  0  0  0  0  0  0  0
  -14.5654    3.2867   28.6802 P   0  0  1  0  0  0  0  0  0  0  0  0
  -14.5728    2.1242   28.4813 O   0  0  0  0  0  0  0  0  0  0  0  0
  -13.8169    3.6978   30.1317 O   0  0  0  0  0  0  0  0  0  0  0  0
  -15.8492    4.0635   28.8900 O   0  0  0  0  0  0  0  0  0  0  0  0
  -12.9361    2.7758   30.7059 C   0  0  0  0  0  0  0  0  0  0  0  0
  8 11  1  0
 10 12  1  0
  4 18  1  0
 17 24  1  0
 24 25  1  0
 14 26  1  0
 26 27  1  6
 25 28  1  0
 26 28  1  0
 16 29  1  0
 29 30  1  6
 29 31  1  0
 31 32  1  0
 32 33  2  0
 15 34  1  0
 33 34  1  0
 32 35  1  0
 35 36  2  0
 35 37  1  0
 35 38  1  1
 37 39  1  0
 12 13  2  0
 13 14  1  0
 14 17  2  0
 17 16  1  0
 16 15  2  0
 15 12  1  0
 18 19  2  0
 19 20  1  0
 20 21  2  0
 21 22  1  0
 22 23  2  0
 23 18  1  0
  1  2  2  0
  5 10  2  0
 10  9  1  0
  9  8  2  0
  8  1  1  0
  2  3  1  0
  3  4  2  0
  4  7  1  0
  7  6  2  0
  6  5  1  0
  5  2  1  0
M  END
$$$$
