No_1979-complexes_sdf/6BKW-FPZ/2024-09-17-14-21-01/
     RDKit          3D

 40 45  0  0  0  0  0  0  0  0999 V2000
   -7.2496    3.8871   27.4508 C   0  0  0  0  0  0  0  0  0  0  0  0
   -7.9379    4.9063   27.8518 C   0  0  0  0  0  0  0  0  0  0  0  0
   -9.3376    4.8647   27.7795 C   0  0  0  0  0  0  0  0  0  0  0  0
   -7.8544    2.6294   27.0414 C   0  0  0  0  0  0  0  0  0  0  0  0
   -9.2852    2.6570   27.0666 C   0  0  0  0  0  0  0  0  0  0  0  0
  -10.0126    3.7528   27.4890 C   0  0  0  0  0  0  0  0  0  0  0  0
   -9.9609    1.3640   26.7239 C   0  0  0  0  0  0  0  0  0  0  0  0
  -10.7817    1.2617   26.0939 C   0  0  0  0  0  0  0  0  0  0  0  0
  -11.4213   -0.0529   25.7372 C   0  0  0  0  0  0  0  0  0  0  0  0
   -9.3125    0.1725   27.3401 C   0  0  0  0  0  0  0  0  0  0  0  0
   -9.8207   -1.0500   27.2130 C   0  0  0  0  0  0  0  0  0  0  0  0
   -9.2919   -2.1900   27.9276 C   0  0  0  0  0  0  0  0  0  0  0  0
  -10.9407   -1.1322   26.4096 C   0  0  0  0  0  0  0  0  0  0  0  0
   -7.3273    6.0897   28.1527 O   0  0  0  0  0  0  0  0  0  0  0  0
   -9.7229   -2.4611   29.1371 C   0  0  0  0  0  0  0  0  0  0  0  0
   -9.0523   -3.3776   29.9974 C   0  0  0  0  0  0  0  0  0  0  0  0
   -7.9541   -4.0259   29.4629 C   0  0  0  0  0  0  0  0  0  0  0  0
   -8.0706   -2.7150   27.5288 C   0  0  0  0  0  0  0  0  0  0  0  0
   -7.5338   -2.3355   26.2190 C   0  0  0  0  0  0  0  0  0  0  0  0
   -7.3982   -3.6969   28.3005 C   0  0  0  0  0  0  0  0  0  0  0  0
   -6.4048   -2.5110   25.9482 C   0  0  0  0  0  0  0  0  0  0  0  0
   -5.7839   -1.9750   24.7013 C   0  0  0  0  0  0  0  0  0  0  0  0
   -6.5797   -1.2002   23.8441 C   0  0  0  0  0  0  0  0  0  0  0  0
   -7.9047   -0.9250   24.2343 C   0  0  0  0  0  0  0  0  0  0  0  0
   -8.3665   -1.4203   25.4451 C   0  0  0  0  0  0  0  0  0  0  0  0
   -9.5470   -1.6787   25.1226 O   0  0  0  0  0  0  0  0  0  0  0  0
  -10.3077   -2.0242   24.0618 C   0  0  0  0  0  0  0  0  0  0  0  0
  -12.1119   -1.2730   27.6058 C   0  0  0  0  0  0  0  0  0  0  0  0
  -13.3936   -1.0206   27.3162 C   0  0  0  0  0  0  0  0  0  0  0  0
  -11.0136   -3.1198   24.1871 C   0  0  0  0  0  0  0  0  0  0  0  0
  -11.8252   -3.5672   23.1991 C   0  0  0  0  0  0  0  0  0  0  0  0
  -11.9382   -2.8276   22.0807 C   0  0  0  0  0  0  0  0  0  0  0  0
  -11.2200   -1.6493   21.9003 C   0  0  0  0  0  0  0  0  0  0  0  0
  -10.3762   -1.2013   22.9430 C   0  0  0  0  0  0  0  0  0  0  0  0
  -13.8667   -0.7481   26.3207 C   0  0  0  0  0  0  0  0  0  0  0  0
  -12.9975    0.1603   25.7898 C   0  0  0  0  0  0  0  0  0  0  0  0
  -13.5452    1.2158   24.8212 C   0  0  1  0  0  0  0  0  0  0  0  0
  -13.4068    2.4736   25.1168 C   0  0  0  0  0  0  0  0  0  0  0  0
  -13.6569    3.5043   24.2083 C   0  0  0  0  0  0  0  0  0  0  0  0
  -14.0399    0.8509   23.6308 C   0  0  0  0  0  0  0  0  0  0  0  0
  5  7  1  0
 11 12  1  0
  2 14  1  0
 18 19  1  0
 25 26  1  0
 26 27  1  0
 36 37  1  0
 37 38  1  0
 38 39  2  0
 37 40  1  6
  1  2  2  0
  2  3  1  0
  3  6  2  0
  6  5  1  0
  5  4  2  0
  4  1  1  0
 19 21  2  0
 21 22  1  0
 22 23  2  0
 23 24  1  0
 24 25  2  0
 25 19  1  0
 13 28  2  0
 28 29  1  0
 29 35  2  0
 35 36  1  0
 36  9  2  0
 27 30  2  0
 30 31  1  0
 31 32  2  0
 32 33  1  0
 33 34  2  0
 34 27  1  0
 12 15  2  0
 15 16  1  0
 16 17  2  0
 17 20  1  0
 20 18  2  0
 18 12  1  0
  7  8  2  0
  8  9  1  0
  9 13  1  0
 13 11  1  0
 11 10  2  0
 10  7  1  0
M  END
$$$$
