No_115-complexes_sdf/6BKW-FPZ/2024-09-17-14-21-01/
     RDKit          3D

 11 11  0  0  0  0  0  0  0  0999 V2000
   -7.2496    3.8871   27.4508 C   0  0  0  0  0  0  0  0  0  0  0  0
   -7.6161    2.7143   27.1523 C   0  0  0  0  0  0  0  0  0  0  0  0
   -8.6212    2.2239   26.4074 C   0  0  0  0  0  0  0  0  0  0  0  0
   -8.2540    4.9237   27.1711 C   0  0  0  0  0  0  0  0  0  0  0  0
   -8.0299    6.2902   27.5027 C   0  0  0  0  0  0  0  0  0  0  0  0
   -9.3752    4.6360   26.4536 C   0  0  0  0  0  0  0  0  0  0  0  0
   -9.6012    3.2992   26.1125 C   0  0  0  0  0  0  0  0  0  0  0  0
   -8.8738    7.3551   27.0512 C   0  0  0  0  0  0  0  0  0  0  0  0
   -6.7641    1.4389   27.4887 C   0  0  0  0  0  0  0  0  0  0  0  0
   -7.1066    0.1644   27.3864 C   0  0  0  0  0  0  0  0  0  0  0  0
   -8.3513   -0.0622   26.7144 C   0  0  0  0  0  0  0  0  0  0  0  0
  4  5  1  0
  5  8  2  0
  2  9  1  0
  9 10  2  3
 10 11  1  0
  1  2  2  0
  2  3  1  0
  3  7  2  0
  7  6  1  0
  6  4  2  0
  4  1  1  0
M  END
$$$$
