No_1756-complexes_sdf/6BKW-FPZ/2024-09-17-14-21-01/
     RDKit          3D

 16 17  0  0  0  0  0  0  0  0999 V2000
   -7.2496    3.8871   27.4508 C   0  0  0  0  0  0  0  0  0  0  0  0
   -7.6161    2.7143   27.1523 C   0  0  0  0  0  0  0  0  0  0  0  0
   -8.6212    2.2239   26.4073 C   0  0  0  0  0  0  0  0  0  0  0  0
   -8.2540    4.9237   27.1711 C   0  0  0  0  0  0  0  0  0  0  0  0
   -9.3729    4.5806   26.4432 C   0  0  0  0  0  0  0  0  0  0  0  0
   -8.9159    0.9340   26.0822 C   0  0  0  0  0  0  0  0  0  0  0  0
   -9.6005    3.2665   26.0851 C   0  0  0  0  0  0  0  0  0  0  0  0
   -7.9118    6.3345   27.5298 C   0  0  0  0  0  0  0  0  0  0  0  0
   -9.0910   -0.0383   26.9503 C   0  0  0  0  0  0  0  0  0  0  0  0
   -9.3488   -1.0183   27.1408 C   0  0  0  0  0  0  0  0  0  0  0  0
   -9.4826   -1.8066   28.4470 C   0  0  0  0  0  0  0  0  0  0  0  0
   -8.2193    7.3110   26.5443 C   0  0  0  0  0  0  0  0  0  0  0  0
   -9.8468   -1.9475   26.0037 C   0  0  0  0  0  0  0  0  0  0  0  0
  -10.1867   -3.1556   26.2077 C   0  0  0  0  0  0  0  0  0  0  0  0
   -9.8850   -3.0469   28.6575 C   0  0  0  0  0  0  0  0  0  0  0  0
  -10.2488   -3.7542   27.5089 C   0  0  0  0  0  0  0  0  0  0  0  0
  3  6  1  0
  4  8  1  0
  6  9  2  3
  9 10  1  0
  8 12  1  0
 10 11  2  0
 11 15  1  0
 15 16  2  0
 16 14  1  0
 14 13  2  0
 13 10  1  0
  1  2  2  0
  2  3  1  0
  3  7  2  0
  7  5  1  0
  5  4  2  0
  4  1  1  0
M  END
$$$$
