No_1109-complexes_sdf/6BKW-FPZ/2024-09-17-14-21-01/
     RDKit          3D

 12 12  0  0  0  0  0  0  0  0999 V2000
   -7.2496    3.8871   27.4508 C   0  0  0  0  0  0  0  0  0  0  0  0
   -8.5096    4.0291   27.2770 C   0  0  0  0  0  0  0  0  0  0  0  0
   -9.3451    2.8786   26.9046 C   0  0  0  0  0  0  0  0  0  0  0  0
   -6.6065    2.5680   27.5073 C   0  0  0  0  0  0  0  0  0  0  0  0
   -7.3970    1.4834   27.2271 C   0  0  0  0  0  0  0  0  0  0  0  0
   -8.7029    1.6398   26.9934 C   0  0  0  0  0  0  0  0  0  0  0  0
   -8.9278    5.4720   27.2132 C   0  0  0  0  0  0  0  0  0  0  0  0
  -10.2620    5.8440   26.9895 C   0  0  0  0  0  0  0  0  0  0  0  0
   -7.9590    6.4886   27.3103 C   0  0  0  0  0  0  0  0  0  0  0  0
   -8.3210    7.7979   27.0576 N   0  0  0  0  0  0  0  0  0  0  0  0
   -5.3038    2.4342   27.8076 N   0  0  0  0  0  0  0  0  0  0  0  0
  -11.2519    4.8446   26.9793 C   0  0  0  0  0  0  0  0  0  0  0  0
  2  7  1  0
  7  8  2  3
  7  9  1  0
  9 10  2  0
  4 11  1  0
  8 12  1  0
  1  2  2  0
  2  3  1  0
  3  6  2  0
  6  5  1  0
  5  4  2  0
  4  1  1  0
M  END
$$$$
