No_1334-complexes_sdf/6BKW-FPZ/2024-09-17-14-21-01/
     RDKit          3D

 38 42  0  0  0  0  0  0  0  0999 V2000
   -7.9040    3.9820   27.1177 C   0  0  0  0  0  0  0  0  0  0  0  0
   -8.2057    2.8231   26.8733 C   0  0  0  0  0  0  0  0  0  0  0  0
   -7.4766    1.7477   27.4593 C   0  0  0  0  0  0  0  0  0  0  0  0
   -6.7221    4.3631   27.8544 C   0  0  0  0  0  0  0  0  0  0  0  0
   -6.1698    2.0708   27.9540 C   0  0  0  0  0  0  0  0  0  0  0  0
   -5.8496    3.3886   28.1848 C   0  0  0  0  0  0  0  0  0  0  0  0
   -8.7560    5.1534   26.7276 C   0  0  0  0  0  0  0  0  0  0  0  0
   -9.5410    5.0632   25.5324 C   0  0  0  0  0  0  0  0  0  0  0  0
   -8.7352    6.3268   27.4019 C   0  0  0  0  0  0  0  0  0  0  0  0
   -5.2958    0.9605   28.3598 C   0  0  0  0  0  0  0  0  0  0  0  0
   -4.5705    0.3635   27.6164 C   0  0  0  0  0  0  0  0  0  0  0  0
   -3.5922   -0.6665   28.0505 C   0  0  0  0  0  0  0  0  0  0  0  0
   -3.5068   -0.9626   29.4092 C   0  0  0  0  0  0  0  0  0  0  0  0
   -4.3686   -0.2700   30.2700 C   0  0  0  0  0  0  0  0  0  0  0  0
   -5.1733    0.7294   29.7872 C   0  0  0  0  0  0  0  0  0  0  0  0
   -4.2975   -0.5089   31.7321 C   0  0  0  0  0  0  0  0  0  0  0  0
   -5.2011   -0.7812   32.4289 C   0  0  0  0  0  0  0  0  0  0  0  0
   -5.0749   -1.0946   33.8389 C   0  0  0  0  0  0  0  0  0  0  0  0
   -3.8369   -1.1408   34.4428 C   0  0  0  0  0  0  0  0  0  0  0  0
   -2.8939   -0.6564   32.3607 C   0  0  0  0  0  0  0  0  0  0  0  0
   -2.7288   -0.8567   33.6586 C   0  0  0  0  0  0  0  0  0  0  0  0
   -3.9512   -1.3108   35.8624 C   0  0  0  0  0  0  0  0  0  0  0  0
   -3.2246   -2.1962   36.4801 C   0  0  0  0  0  0  0  0  0  0  0  0
   -2.3994   -2.7855   36.1568 C   0  0  0  0  0  0  0  0  0  0  0  0
   -1.5854   -3.7900   36.9588 C   0  0  0  0  0  0  0  0  0  0  0  0
   -2.0370   -4.0095   38.2305 C   0  0  0  0  0  0  0  0  0  0  0  0
   -3.0995   -3.3100   38.7184 C   0  0  0  0  0  0  0  0  0  0  0  0
   -3.7792   -2.3154   37.9728 C   0  0  0  0  0  0  0  0  0  0  0  0
   -4.5470   -0.2184   36.4694 O   0  0  0  0  0  0  0  0  0  0  0  0
  -10.2381    3.9775   25.1718 C   0  0  0  0  0  0  0  0  0  0  0  0
  -10.8842    3.8892   24.3545 C   0  0  0  0  0  0  0  0  0  0  0  0
  -11.5949    2.7289   23.7557 C   0  0  0  0  0  0  0  0  0  0  0  0
  -11.2709    1.5963   24.3848 C   0  0  0  0  0  0  0  0  0  0  0  0
  -11.9124    0.4312   23.8794 C   0  0  0  0  0  0  0  0  0  0  0  0
  -12.7174    0.5050   22.7634 C   0  0  0  0  0  0  0  0  0  0  0  0
  -12.9812    1.6712   22.1364 C   0  0  0  0  0  0  0  0  0  0  0  0
  -12.4125    2.8373   22.6147 C   0  0  0  0  0  0  0  0  0  0  0  0
   -2.4458   -1.4585   26.7821 Br  0  0  0  0  0  0  0  0  0  0  0  0
  1  7  1  0
  7  8  2  3
  7  9  1  0
  5 10  1  0
 14 16  1  0
 19 22  1  0
 22 23  1  0
 22 29  2  0
  8 30  1  0
 30 31  2  3
 31 32  1  0
 12 38  1  0
 32 33  2  0
 33 34  1  0
 34 35  2  0
 35 36  1  0
 36 37  2  0
 37 32  1  0
 23 24  2  0
 24 25  1  0
 25 26  2  0
 26 27  1  0
 27 28  2  0
 28 23  1  0
  1  2  2  0
  2  3  1  0
  3  5  2  0
  5  6  1  0
  6  4  2  0
  4  1  1  0
 10 11  2  0
 11 12  1  0
 12 13  2  0
 13 14  1  0
 14 15  2  0
 15 10  1  0
 16 17  2  0
 17 18  1  0
 18 19  2  0
 19 21  1  0
 21 20  2  0
 20 16  1  0
M  END
$$$$
