No_1125-complexes_sdf/6BKW-FPZ/2024-09-17-14-21-01/
     RDKit          3D

 12 13  0  0  0  0  0  0  0  0999 V2000
   -7.2496    3.8871   27.4508 C   0  0  0  0  0  0  0  0  0  0  0  0
   -7.6161    2.7143   27.1523 C   0  0  0  0  0  0  0  0  0  0  0  0
   -8.8302    2.4659   26.5056 C   0  0  0  0  0  0  0  0  0  0  0  0
   -8.1584    5.0090   27.3234 C   0  0  0  0  0  0  0  0  0  0  0  0
   -9.3788    4.7965   26.7695 C   0  0  0  0  0  0  0  0  0  0  0  0
   -9.7028    3.5649   26.3276 C   0  0  0  0  0  0  0  0  0  0  0  0
   -6.5601    1.6614   27.4277 C   0  0  0  0  0  0  0  0  0  0  0  0
   -5.4099    1.9197   28.0803 C   0  0  0  0  0  0  0  0  0  0  0  0
   -7.0445    0.2715   27.2762 C   0  0  0  0  0  0  0  0  0  0  0  0
   -4.4848    0.8626   28.3279 C   0  0  0  0  0  0  0  0  0  0  0  0
   -6.0990   -0.7239   27.6419 C   0  0  0  0  0  0  0  0  0  0  0  0
   -4.8233   -0.4210   28.2028 C   0  0  0  0  0  0  0  0  0  0  0  0
  2  7  1  0
  1  2  2  0
  2  3  1  0
  3  6  2  0
  6  5  1  0
  5  4  2  0
  4  1  1  0
  7  8  2  0
  8 10  1  0
 10 12  2  0
 12 11  1  0
 11  9  2  0
  9  7  1  0
M  END
$$$$
