No_1228-complexes_sdf/6BKW-FPZ/2024-09-17-14-21-01/
     RDKit          3D

 31 35  0  0  0  0  0  0  0  0999 V2000
   -7.9040    3.9820   27.1177 C   0  0  0  0  0  0  0  0  0  0  0  0
   -8.2057    2.8231   26.8733 C   0  0  0  0  0  0  0  0  0  0  0  0
   -7.0130    4.3706   28.1140 C   0  0  0  0  0  0  0  0  0  0  0  0
   -7.4093    1.7370   27.3857 C   0  0  0  0  0  0  0  0  0  0  0  0
   -6.1943    2.1490   28.0403 C   0  0  0  0  0  0  0  0  0  0  0  0
   -5.2077    1.1775   28.4320 C   0  0  0  0  0  0  0  0  0  0  0  0
   -5.9705    3.5268   28.3803 C   0  0  0  0  0  0  0  0  0  0  0  0
   -5.5039   -0.1875   28.5196 C   0  0  0  0  0  0  0  0  0  0  0  0
   -4.5799   -1.0807   28.9723 C   0  0  0  0  0  0  0  0  0  0  0  0
   -3.2836   -0.6233   29.3184 C   0  0  0  0  0  0  0  0  0  0  0  0
   -2.9646    0.6954   29.1440 C   0  0  0  0  0  0  0  0  0  0  0  0
   -3.8511    1.5590   28.7661 C   0  0  0  0  0  0  0  0  0  0  0  0
   -8.9550    5.0722   26.6858 C   0  0  0  0  0  0  0  0  0  0  0  0
   -9.0574    6.2222   27.3220 N   0  0  0  0  0  0  0  0  0  0  0  0
   -9.5886    4.9150   25.5534 N   0  0  0  0  0  0  0  0  0  0  0  0
   -2.1710   -1.5400   29.7527 C   0  0  0  0  0  0  0  0  0  0  0  0
   -1.2070   -1.7752   29.0598 O   0  0  0  0  0  0  0  0  0  0  0  0
   -2.3740   -2.1172   30.9181 O   0  0  0  0  0  0  0  0  0  0  0  0
   -9.6588    5.7126   24.7373 C   0  0  0  0  0  0  0  0  0  0  0  0
   -8.9278    7.4322   26.7323 C   0  0  0  0  0  0  0  0  0  0  0  0
  -10.2269    5.3773   23.5800 N   0  0  0  0  0  0  0  0  0  0  0  0
   -9.4681    7.1545   24.9141 C   0  0  0  0  0  0  0  0  0  0  0  0
  -10.5110    4.0831   23.2644 C   0  0  0  0  0  0  0  0  0  0  0  0
  -10.6983    3.7380   21.8627 C   0  0  0  0  0  0  0  0  0  0  0  0
  -10.6864    2.4170   21.4501 C   0  0  0  0  0  0  0  0  0  0  0  0
  -10.5701    1.3883   22.4432 C   0  0  0  0  0  0  0  0  0  0  0  0
  -10.4402    1.6974   23.7647 C   0  0  0  0  0  0  0  0  0  0  0  0
  -10.3335    3.0120   24.1563 C   0  0  0  0  0  0  0  0  0  0  0  0
   -9.8911    3.4192   25.4434 N   0  0  0  0  0  0  0  0  0  0  0  0
   -9.5031    2.5382   26.3284 C   0  0  0  0  0  0  0  0  0  0  0  0
  -11.4932    3.5115   26.1259 C   0  0  0  0  0  0  0  0  0  0  0  0
  5  6  1  0
  1 13  1  0
 10 16  1  0
 16 17  2  0
 16 18  1  0
 21 23  1  0
 28 29  1  0
  2 30  1  0
 29 30  1  0
 29 31  1  0
 21 19  1  0
 23 24  2  0
 24 25  1  0
 25 26  2  0
 26 27  1  0
 27 28  2  0
 28 23  1  0
  1  2  2  0
  2  4  1  0
  4  5  2  0
  5  7  1  0
  7  3  2  0
  3  1  1  0
  6  8  2  0
  8  9  1  0
  9 10  2  0
 10 11  1  0
 11 12  2  0
 12  6  1  0
 13 14  2  0
 14 20  1  0
 20 22  2  0
 22 19  1  0
 19 15  2  0
 15 13  1  0
M  END
$$$$
