No_1615-complexes_sdf/6BKW-FPZ/2024-09-17-14-21-01/
     RDKit          3D

 40 45  0  0  0  0  0  0  0  0999 V2000
   -7.9040    3.9820   27.1177 C   0  0  0  0  0  0  0  0  0  0  0  0
   -8.2057    2.8231   26.8733 C   0  0  0  0  0  0  0  0  0  0  0  0
   -8.7695    5.0740   26.7916 C   0  0  0  0  0  0  0  0  0  0  0  0
   -8.4337    6.4678   27.0913 C   0  0  0  0  0  0  0  0  0  0  0  0
   -9.3742    2.4311   26.2346 C   0  0  0  0  0  0  0  0  0  0  0  0
  -10.2395    3.4267   25.8887 C   0  0  0  0  0  0  0  0  0  0  0  0
   -9.9567    4.7548   26.1374 C   0  0  0  0  0  0  0  0  0  0  0  0
   -7.9839    7.5474   27.0128 N   0  0  0  0  0  0  0  0  0  0  0  0
   -7.2381    1.6824   27.2965 C   0  0  0  0  0  0  0  0  0  0  0  0
   -6.7581    0.8634   26.9295 N   0  0  0  0  0  0  0  0  0  0  0  0
   -5.7690    0.1959   27.6436 C   0  0  0  0  0  0  0  0  0  0  0  0
   -4.7965    0.4857   27.9785 C   0  0  0  0  0  0  0  0  0  0  0  0
   -4.7052    2.0314   28.3279 C   0  0  0  0  0  0  0  0  0  0  0  0
   -5.8327    2.9128   27.7761 C   0  0  0  0  0  0  0  0  0  0  0  0
   -3.6210   -0.1400   28.5850 C   0  0  0  0  0  0  0  0  0  0  0  0
   -3.4275   -1.2063   28.7042 N   0  0  0  0  0  0  0  0  0  0  0  0
   -4.4428   -2.0923   28.3901 C   0  0  0  0  0  0  0  0  0  0  0  0
   -5.7575   -1.4089   27.5517 C   0  0  0  0  0  0  0  0  0  0  0  0
  -11.4686    3.1073   25.1210 C   0  0  2  0  0  0  0  0  0  0  0  0
  -11.4817    1.9561   24.3908 C   0  0  0  0  0  0  0  0  0  0  0  0
  -11.4000    0.9038   24.7635 C   0  0  0  0  0  0  0  0  0  0  0  0
  -11.3619   -0.3317   23.9232 C   0  0  0  0  0  0  0  0  0  0  0  0
  -11.4806   -0.0958   22.5812 C   0  0  0  0  0  0  0  0  0  0  0  0
  -11.5554    1.1848   22.0456 C   0  0  0  0  0  0  0  0  0  0  0  0
  -11.5349    2.2546   22.8813 C   0  0  0  0  0  0  0  0  0  0  0  0
  -11.9683    4.3344   24.3074 C   0  0  0  0  0  0  0  0  0  0  0  0
  -12.5384    2.8144   26.3304 C   0  0  0  0  0  0  0  0  0  0  0  0
  -12.1855    2.9800   27.5472 C   0  0  0  0  0  0  0  0  0  0  0  0
  -12.8874    2.8656   28.6694 C   0  0  0  0  0  0  0  0  0  0  0  0
  -14.2441    2.6948   28.7579 C   0  0  0  0  0  0  0  0  0  0  0  0
  -14.7457    2.5457   27.3921 C   0  0  0  0  0  0  0  0  0  0  0  0
  -13.9848    2.6675   26.1793 C   0  0  0  0  0  0  0  0  0  0  0  0
  -14.5572    2.5020   24.9053 C   0  0  0  0  0  0  0  0  0  0  0  0
  -15.6341    2.8405   24.6729 C   0  0  0  0  0  0  0  0  0  0  0  0
  -16.2613    2.9607   23.7358 C   0  0  0  0  0  0  0  0  0  0  0  0
  -15.5373    2.8552   22.4825 C   0  0  0  0  0  0  0  0  0  0  0  0
  -14.2360    2.4114   22.5726 C   0  0  0  0  0  0  0  0  0  0  0  0
  -13.6801    2.3507   23.8441 C   0  0  0  0  0  0  0  0  0  0  0  0
  -13.3037    1.4034   23.8199 O   0  0  0  0  0  0  0  0  0  0  0  0
  -14.1968    0.6796   23.8752 C   0  0  0  0  0  0  0  0  0  0  0  0
  3  4  1  0
  4  8  3  0
  2  9  1  0
  6 19  1  0
 19 20  1  0
 19 26  1  6
 19 27  1  0
 32 33  1  0
 38 39  1  0
 39 40  1  0
  1  2  2  0
  2  5  1  0
  5  6  2  0
  6  7  1  0
  7  3  2  0
  3  1  1  0
 12 15  2  0
 15 16  1  0
 16 17  2  0
 17 18  1  0
 18 11  2  0
 33 34  2  0
 34 35  1  0
 35 36  2  0
 36 37  1  0
 37 38  2  0
 38 33  1  0
  9 10  2  0
 10 11  1  0
 11 12  1  0
 12 13  1  0
 13 14  2  0
 14  9  1  0
 27 28  2  0
 28 29  1  0
 29 30  2  0
 30 31  1  0
 31 32  2  0
 32 27  1  0
 20 21  2  0
 21 22  1  0
 22 23  2  0
 23 24  1  0
 24 25  2  0
 25 20  1  0
M  END
$$$$
