No_1602-complexes_sdf/6BKW-FPZ/2024-09-17-14-21-01/
     RDKit          3D

 40 43  0  0  0  0  0  0  0  0999 V2000
   -7.9040    3.9820   27.1177 C   0  0  0  0  0  0  0  0  0  0  0  0
   -9.0711    4.3164   27.0630 C   0  0  0  0  0  0  0  0  0  0  0  0
  -10.0395    3.8218   27.1938 C   0  0  0  0  0  0  0  0  0  0  0  0
   -7.6424    2.5858   27.3610 C   0  0  0  0  0  0  0  0  0  0  0  0
   -8.7741    1.7889   27.4566 C   0  0  0  0  0  0  0  0  0  0  0  0
  -10.0155    2.3581   27.4300 C   0  0  0  0  0  0  0  0  0  0  0  0
   -9.1463    5.9504   26.8742 C   0  0  0  0  0  0  0  0  0  0  0  0
   -8.8609    6.7865   28.0116 C   0  0  0  0  0  0  0  0  0  0  0  0
   -9.0794    6.3505   25.5211 C   0  0  0  0  0  0  0  0  0  0  0  0
   -6.3190    1.9825   27.3549 C   0  0  0  0  0  0  0  0  0  0  0  0
   -6.1098    0.6231   27.3505 C   0  0  0  0  0  0  0  0  0  0  0  0
   -4.8601    0.1092   27.4977 C   0  0  0  0  0  0  0  0  0  0  0  0
   -3.7644    1.0196   27.7089 C   0  0  0  0  0  0  0  0  0  0  0  0
   -4.0648    2.3783   27.8411 C   0  0  0  0  0  0  0  0  0  0  0  0
   -5.2222    2.8504   27.7381 C   0  0  0  0  0  0  0  0  0  0  0  0
  -11.2508    1.5762   27.6563 C   0  0  0  0  0  0  0  0  0  0  0  0
  -12.0277    1.3371   26.6557 C   0  0  0  0  0  0  0  0  0  0  0  0
  -11.7554    1.6841   25.3804 C   0  0  0  0  0  0  0  0  0  0  0  0
  -12.6360    1.4037   24.2592 C   0  0  0  0  0  0  0  0  0  0  0  0
  -12.3192    1.7994   22.9376 C   0  0  0  0  0  0  0  0  0  0  0  0
  -11.0851    2.4918   22.7259 C   0  0  0  0  0  0  0  0  0  0  0  0
  -10.2224    2.7503   23.7811 C   0  0  0  0  0  0  0  0  0  0  0  0
  -10.5239    2.4065   24.9898 C   0  0  0  0  0  0  0  0  0  0  0  0
   -2.5047    0.5178   27.8554 O   0  0  0  0  0  0  0  0  0  0  0  0
   -1.9143   -0.0001   26.7687 C   0  0  0  0  0  0  0  0  0  0  0  0
  -13.7561    0.7974   27.0376 Br  0  0  0  0  0  0  0  0  0  0  0  0
   -8.9730    7.6734   25.3506 N   0  0  0  0  0  0  0  0  0  0  0  0
   -8.5959    8.1003   27.5666 C   0  0  0  0  0  0  0  0  0  0  0  0
   -8.6843    8.4833   26.2246 C   0  0  0  0  0  0  0  0  0  0  0  0
  -10.8769    2.9153   21.0659 Cl  0  0  0  0  0  0  0  0  0  0  0  0
   -9.4652    5.5226   24.6239 N   0  0  0  0  0  0  0  0  0  0  0  0
   -1.5628   -1.4028   27.1066 C   0  0  0  0  0  0  0  0  0  0  0  0
   -1.8212   -2.2940   26.0565 C   0  0  0  0  0  0  0  0  0  0  0  0
   -3.2566   -2.2923   25.7776 C   0  0  0  0  0  0  0  0  0  0  0  0
   -3.9560   -3.4633   26.2016 C   0  0  0  0  0  0  0  0  0  0  0  0
   -5.3506   -3.4154   25.8204 C   0  0  0  0  0  0  0  0  0  0  0  0
   -5.7041   -3.7971   24.5804 C   0  0  0  0  0  0  0  0  0  0  0  0
   -6.2091   -2.8928   23.8012 C   0  0  0  0  0  0  0  0  0  0  0  0
   -6.2413   -2.9135   22.4377 C   0  0  0  0  0  0  0  0  0  0  0  0
   -6.8632   -1.8325   21.6634 C   0  0  0  0  0  0  0  0  0  0  0  0
  2  7  1  0
  4 10  1  0
  6 16  1  0
 16 17  2  3
 17 18  1  0
 13 24  1  0
 24 25  1  0
 17 26  1  0
 21 30  1  0
  9 31  1  0
 25 32  1  0
 32 33  1  0
 33 34  1  0
 34 35  1  0
 35 36  1  0
 36 37  1  0
 37 38  1  0
 38 39  2  3
 39 40  1  0
 18 19  2  0
 19 20  1  0
 20 21  2  0
 21 22  1  0
 22 23  2  0
 23 18  1  0
  1  2  2  0
  2  3  1  0
  3  6  2  0
  6  5  1  0
  5  4  2  0
  4  1  1  0
  7  8  2  0
  8 28  1  0
 28 29  2  0
 29 27  1  0
 27  9  2  0
  9  7  1  0
 10 11  2  0
 11 12  1  0
 12 13  2  0
 13 14  1  0
 14 15  2  0
 15 10  1  0
M  END
$$$$
