No_1713-complexes_sdf/6BKW-FPZ/2024-09-17-14-21-01/
     RDKit          3D

 29 31  0  0  0  0  0  0  0  0999 V2000
   -7.7129    4.2099   27.0854 C   0  0  0  0  0  0  0  0  0  0  0  0
   -8.9133    4.4736   27.0998 C   0  0  0  0  0  0  0  0  0  0  0  0
   -9.4643    5.5426   27.7628 C   0  0  0  0  0  0  0  0  0  0  0  0
   -7.2009    2.9448   26.6134 C   0  0  0  0  0  0  0  0  0  0  0  0
   -8.1365    1.9533   26.2981 C   0  0  0  0  0  0  0  0  0  0  0  0
   -9.4514    2.2934   26.2667 C   0  0  0  0  0  0  0  0  0  0  0  0
   -9.8600    3.4834   26.7068 C   0  0  0  0  0  0  0  0  0  0  0  0
   -7.6019    0.6586   25.9004 C   0  0  0  0  0  0  0  0  0  0  0  0
   -6.8351   -0.0690   26.8601 C   0  0  0  0  0  0  0  0  0  0  0  0
   -6.7635    0.4154   28.0071 F   0  0  0  0  0  0  0  0  0  0  0  0
   -7.2901   -1.3613   27.0006 F   0  0  0  0  0  0  0  0  0  0  0  0
   -5.5617   -0.2292   26.3536 F   0  0  0  0  0  0  0  0  0  0  0  0
  -11.2825    3.7889   26.6525 C   0  0  2  0  0  0  0  0  0  0  0  0
  -11.8994    3.8898   27.9358 C   0  0  0  0  0  0  0  0  0  0  0  0
  -12.0421    3.9109   25.5429 C   0  0  0  0  0  0  0  0  0  0  0  0
  -12.6873    3.1690   25.0800 C   0  0  0  0  0  0  0  0  0  0  0  0
  -13.3495    3.7307   27.8960 C   0  0  0  0  0  0  0  0  0  0  0  0
  -13.9940    2.8739   25.8099 C   0  0  0  0  0  0  0  0  0  0  0  0
  -14.2117    3.0814   27.1659 C   0  0  0  0  0  0  0  0  0  0  0  0
  -14.0306    4.6703   28.9253 C   0  0  0  0  0  0  0  0  0  0  0  0
  -14.3604    4.0899   30.1713 C   0  0  0  0  0  0  0  0  0  0  0  0
  -14.9823    4.7924   31.1879 C   0  0  0  0  0  0  0  0  0  0  0  0
  -15.0211    4.2853   32.4764 C   0  0  0  0  0  0  0  0  0  0  0  0
  -14.4439    3.0207   32.7294 C   0  0  0  0  0  0  0  0  0  0  0  0
  -13.7945    2.3441   31.7159 C   0  0  0  0  0  0  0  0  0  0  0  0
  -13.6427    2.8772   30.4649 C   0  0  0  0  0  0  0  0  0  0  0  0
  -15.5835    6.0827   30.8787 C   0  0  0  0  0  0  0  0  0  0  0  0
  -16.7159    6.1158   30.9955 F   0  0  0  0  0  0  0  0  0  0  0  0
  -15.2516    6.4916   29.5628 F   0  0  0  0  0  0  0  0  0  0  0  0
  5  8  1  0
  8  9  1  0
  9 10  1  0
  9 11  1  0
  9 12  1  0
 13  7  1  1
 13 14  1  0
 13 15  1  0
 15 16  2  0
 14 17  1  0
 16 18  1  0
 17 19  2  0
 18 19  2  0
 17 20  1  0
 20 21  1  0
 22 27  1  0
 27 28  1  0
 27 29  1  0
  3  2  1  0
  1  2  2  0
  2  7  1  0
  7  6  2  0
  6  5  1  0
  5  4  2  0
  4  1  1  0
 21 22  2  0
 22 23  1  0
 23 24  2  0
 24 25  1  0
 25 26  2  0
 26 21  1  0
M  END
$$$$
