No_149-complexes_sdf/6BKW-FPZ/2024-09-17-14-21-01/
     RDKit          3D

 21 22  0  0  0  0  0  0  0  0999 V2000
   -7.9040    3.9820   27.1177 C   0  0  0  0  0  0  0  0  0  0  0  0
   -9.0711    4.3164   27.0630 C   0  0  0  0  0  0  0  0  0  0  0  0
   -9.5294    5.4517   27.7215 C   0  0  0  0  0  0  0  0  0  0  0  0
   -6.9328    4.7309   27.8881 C   0  0  0  0  0  0  0  0  0  0  0  0
   -7.3666    5.8455   28.5488 C   0  0  0  0  0  0  0  0  0  0  0  0
   -8.6669    6.2428   28.4199 C   0  0  0  0  0  0  0  0  0  0  0  0
  -10.0479    3.5083   26.2510 C   0  0  0  0  0  0  0  0  0  0  0  0
  -10.4851    2.3915   26.4094 C   0  0  0  0  0  0  0  0  0  0  0  0
  -11.3243    1.6212   25.5725 C   0  0  0  0  0  0  0  0  0  0  0  0
   -9.9752    3.9702   24.8268 C   0  0  0  0  0  0  0  0  0  0  0  0
  -10.7667    3.3177   23.9006 C   0  0  0  0  0  0  0  0  0  0  0  0
  -11.3798    2.1468   24.2434 C   0  0  0  0  0  0  0  0  0  0  0  0
  -10.8611    3.9002   22.5485 C   0  0  2  0  0  0  0  0  0  0  0  0
  -10.4399    3.2946   21.4323 C   0  0  0  0  0  0  0  0  0  0  0  0
  -11.3798    5.2539   22.4327 C   0  0  0  0  0  0  0  0  0  0  0  0
  -11.0319    2.7312   20.7185 C   0  0  0  0  0  0  0  0  0  0  0  0
  -11.0292    1.2771   20.4575 C   0  0  0  0  0  0  0  0  0  0  0  0
  -11.7852    0.6163   19.5083 C   0  0  0  0  0  0  0  0  0  0  0  0
  -11.7131   -0.7498   19.3965 C   0  0  0  0  0  0  0  0  0  0  0  0
  -10.8334   -1.4842   20.2022 C   0  0  0  0  0  0  0  0  0  0  0  0
  -10.0378   -0.8888   21.1180 C   0  0  0  0  0  0  0  0  0  0  0  0
  2  7  1  0
 11 13  1  0
 13 14  1  0
 13 15  1  1
 14 16  1  0
 16 17  2  3
 17 18  1  0
 18 19  2  3
 19 20  1  0
 20 21  2  0
  1  2  2  0
  2  3  1  0
  3  6  2  0
  6  5  1  0
  5  4  2  0
  4  1  1  0
  7  8  2  0
  8  9  1  0
  9 12  2  0
 12 11  1  0
 11 10  2  0
 10  7  1  0
M  END
$$$$
