No_185-complexes_sdf/6BKW-FPZ/2024-09-17-14-21-01/
     RDKit          3D

 26 29  0  0  0  0  0  0  0  0999 V2000
   -7.2496    3.8871   27.4508 C   0  0  0  0  0  0  0  0  0  0  0  0
   -7.6161    2.7143   27.1523 C   0  0  0  0  0  0  0  0  0  0  0  0
   -8.8302    2.4659   26.5056 C   0  0  0  0  0  0  0  0  0  0  0  0
   -8.1584    5.0089   27.3234 C   0  0  0  0  0  0  0  0  0  0  0  0
   -9.3788    4.7965   26.7695 C   0  0  0  0  0  0  0  0  0  0  0  0
   -9.7028    3.5649   26.3276 C   0  0  0  0  0  0  0  0  0  0  0  0
   -6.7190    1.5585   27.3667 C   0  0  0  0  0  0  0  0  0  0  0  0
   -7.0504    0.2135   27.2455 C   0  0  0  0  0  0  0  0  0  0  0  0
   -5.3579    1.8214   27.8403 C   0  0  0  0  0  0  0  0  0  0  0  0
   -4.4778    0.7869   28.1426 C   0  0  0  0  0  0  0  0  0  0  0  0
   -6.1731   -0.7871   27.5954 C   0  0  0  0  0  0  0  0  0  0  0  0
   -4.8704   -0.4828   28.0687 C   0  0  0  0  0  0  0  0  0  0  0  0
   -7.9078    6.3902   27.8057 C   0  0  0  0  0  0  0  0  0  0  0  0
   -8.4914    7.4691   27.0754 C   0  0  0  0  0  0  0  0  0  0  0  0
   -3.9630   -1.5893   28.4705 C   0  0  0  0  0  0  0  0  0  0  0  0
   -2.9746   -1.7007   27.9307 C   0  0  0  0  0  0  0  0  0  0  0  0
   -1.9697   -2.6298   28.3322 C   0  0  0  0  0  0  0  0  0  0  0  0
   -2.2831   -3.4499   29.4279 C   0  0  0  0  0  0  0  0  0  0  0  0
   -4.2541   -2.2685   29.6949 C   0  0  0  0  0  0  0  0  0  0  0  0
   -3.4185   -3.2394   30.1610 C   0  0  0  0  0  0  0  0  0  0  0  0
  -10.9749    3.3316   25.6024 C   0  0  0  0  0  0  0  0  0  0  0  0
  -12.1137    3.2700   26.2798 C   0  0  0  0  0  0  0  0  0  0  0  0
  -13.3783    3.1048   25.6441 C   0  0  0  0  0  0  0  0  0  0  0  0
  -13.3597    2.9780   24.2548 C   0  0  0  0  0  0  0  0  0  0  0  0
  -11.0470    3.2647   24.1959 C   0  0  0  0  0  0  0  0  0  0  0  0
  -12.1915    3.1338   23.5477 C   0  0  0  0  0  0  0  0  0  0  0  0
  2  7  1  0
  4 13  1  0
 13 14  2  0
 12 15  1  0
  6 21  1  0
 15 16  2  0
 16 17  1  0
 17 18  2  0
 18 20  1  0
 20 19  2  0
 19 15  1  0
 21 22  2  0
 22 23  1  0
 23 24  2  0
 24 26  1  0
 26 25  2  0
 25 21  1  0
  7  8  2  0
  8 11  1  0
 11 12  2  0
 12 10  1  0
 10  9  2  0
  9  7  1  0
  1  2  2  0
  2  3  1  0
  3  6  2  0
  6  5  1  0
  5  4  2  0
  4  1  1  0
M  END
$$$$
