No_1235-complexes_sdf/6BKW-FPZ/2024-09-17-14-21-01/
     RDKit          3D

 19 21  0  0  0  0  0  0  0  0999 V2000
   -7.2496    3.8871   27.4508 C   0  0  0  0  0  0  0  0  0  0  0  0
   -8.5096    4.0291   27.2770 C   0  0  0  0  0  0  0  0  0  0  0  0
   -9.3502    2.8685   26.8763 C   0  0  0  0  0  0  0  0  0  0  0  0
   -6.6288    2.5513   27.4938 C   0  0  0  0  0  0  0  0  0  0  0  0
   -7.4365    1.4714   27.2032 C   0  0  0  0  0  0  0  0  0  0  0  0
   -8.7772    1.6579   26.9338 C   0  0  0  0  0  0  0  0  0  0  0  0
   -9.1078    5.3660   27.2249 C   0  0  0  0  0  0  0  0  0  0  0  0
   -8.7000    6.1682   26.4702 F   0  0  0  0  0  0  0  0  0  0  0  0
   -9.0805    5.9237   28.5738 F   0  0  0  0  0  0  0  0  0  0  0  0
  -10.5333    5.2453   27.0954 F   0  0  0  0  0  0  0  0  0  0  0  0
   -6.7910    0.1925   27.1582 C   0  0  0  0  0  0  0  0  0  0  0  0
   -7.2750   -0.8576   26.7080 C   0  0  0  0  0  0  0  0  0  0  0  0
   -8.6826   -0.7793   26.2559 C   0  0  0  0  0  0  0  0  0  0  0  0
   -9.4363    0.4736   26.3970 C   0  0  0  0  0  0  0  0  0  0  0  0
  -10.7978    0.5313   25.9359 C   0  0  0  0  0  0  0  0  0  0  0  0
  -11.4196    1.4169   25.9800 C   0  0  0  0  0  0  0  0  0  0  0  0
  -12.8791    1.3433   25.5612 C   0  0  0  0  0  0  0  0  0  0  0  0
  -13.2689    0.1681   25.1511 C   0  0  0  0  0  0  0  0  0  0  0  0
  -11.5961   -0.6283   25.5397 C   0  0  0  0  0  0  0  0  0  0  0  0
  2  7  1  0
  7  8  1  0
  7  9  1  0
  7 10  1  0
 14 15  1  0
 15 16  2  0
 16 17  1  0
 17 18  2  0
 15 19  1  0
 18 19  1  0
  1  2  2  0
  2  3  1  0
  3  6  2  0
  5  4  2  0
  4  1  1  0
  5  6  1  0
  6 14  1  0
 14 13  2  0
 13 12  1  0
 12 11  2  0
 11  5  1  0
M  END
$$$$
