No_193-complexes_sdf/6BKW-FPZ/2024-09-17-14-21-01/
     RDKit          3D

 13 14  0  0  0  0  0  0  0  0999 V2000
   -7.9040    3.9820   27.1177 C   0  0  0  0  0  0  0  0  0  0  0  0
   -8.2057    2.8231   26.8733 C   0  0  0  0  0  0  0  0  0  0  0  0
   -7.0130    4.3706   28.1140 C   0  0  0  0  0  0  0  0  0  0  0  0
   -7.3740    1.7588   27.2586 C   0  0  0  0  0  0  0  0  0  0  0  0
   -7.6741    0.4151   27.0228 C   0  0  0  0  0  0  0  0  0  0  0  0
   -5.9145    3.4662   28.2776 C   0  0  0  0  0  0  0  0  0  0  0  0
   -6.1777    2.1014   27.9931 C   0  0  0  0  0  0  0  0  0  0  0  0
   -6.9898   -0.5761   27.2791 C   0  0  0  0  0  0  0  0  0  0  0  0
   -5.6687   -0.2292   27.9018 C   0  0  0  0  0  0  0  0  0  0  0  0
   -5.2991    1.0533   28.3080 C   0  0  0  0  0  0  0  0  0  0  0  0
   -8.9223    5.1281   26.7166 C   0  0  0  0  0  0  0  0  0  0  0  0
   -9.0628    6.2967   27.4615 C   0  0  0  0  0  0  0  0  0  0  0  0
   -9.5518    4.9919   25.4606 C   0  0  0  0  0  0  0  0  0  0  0  0
  1 11  1  0
 11 12  2  0
 11 13  1  0
  1  2  2  0
  2  4  1  0
  7  6  1  0
  6  3  2  0
  3  1  1  0
  4  5  2  0
  5  8  1  0
  8  9  2  0
  9 10  1  0
 10  7  2  0
  7  4  1  0
M  END
$$$$
