No_1104-complexes_sdf/6BKW-FPZ/2024-09-17-14-21-01/
     RDKit          3D

 14 15  0  0  0  0  0  0  0  0999 V2000
   -7.9040    3.9820   27.1177 C   0  0  0  0  0  0  0  0  0  0  0  0
   -7.8663    4.8694   27.9238 C   0  0  0  0  0  0  0  0  0  0  0  0
   -9.0491    3.8523   26.2542 C   0  0  0  0  0  0  0  0  0  0  0  0
   -8.7661    5.9491   27.9690 C   0  0  0  0  0  0  0  0  0  0  0  0
   -9.9295    4.8502   26.2323 C   0  0  0  0  0  0  0  0  0  0  0  0
   -9.8077    5.9288   27.0933 C   0  0  0  0  0  0  0  0  0  0  0  0
   -7.0146    2.9513   27.1368 F   0  0  0  0  0  0  0  0  0  0  0  0
   -9.0848    2.8072   25.3384 O   0  0  0  0  0  0  0  0  0  0  0  0
  -10.1278    2.7612   24.4409 C   0  0  0  0  0  0  0  0  0  0  0  0
  -10.9023    2.1181   24.5174 C   0  0  0  0  0  0  0  0  0  0  0  0
  -12.0068    2.0356   23.4820 C   0  0  0  0  0  0  0  0  0  0  0  0
  -11.8341    2.8763   22.3709 C   0  0  0  0  0  0  0  0  0  0  0  0
  -10.0957    3.6703   23.2354 C   0  0  0  0  0  0  0  0  0  0  0  0
  -10.8798    3.7886   22.3233 C   0  0  0  0  0  0  0  0  0  0  0  0
  1  7  1  0
  3  8  1  0
  8  9  1  0
  1  2  2  0
  2  4  1  0
  4  6  2  0
  6  5  1  0
  5  3  2  0
  3  1  1  0
  9 10  2  0
 10 11  1  0
 11 12  2  0
 12 14  1  0
 14 13  2  0
 13  9  1  0
M  END
$$$$
