No_1006-complexes_sdf/6BKW-FPZ/2024-09-17-14-21-01/
     RDKit          3D

 22 24  0  0  0  0  0  0  0  0999 V2000
   -7.7129    4.2099   27.0854 C   0  0  0  0  0  0  0  0  0  0  0  0
   -8.9133    4.4736   27.0998 C   0  0  0  0  0  0  0  0  0  0  0  0
   -9.4616    5.6470   27.6290 C   0  0  0  0  0  0  0  0  0  0  0  0
   -6.8722    5.1130   27.9248 C   0  0  0  0  0  0  0  0  0  0  0  0
   -7.3801    6.2535   28.4126 C   0  0  0  0  0  0  0  0  0  0  0  0
   -8.6734    6.5530   28.2150 C   0  0  0  0  0  0  0  0  0  0  0  0
   -9.9642    3.5985   26.4507 C   0  0  0  0  0  0  0  0  0  0  0  0
   -9.5631    2.4337   26.1561 C   0  0  0  0  0  0  0  0  0  0  0  0
  -10.1955    1.5739   25.2019 C   0  0  0  0  0  0  0  0  0  0  0  0
  -11.3656    2.0995   24.6516 C   0  0  0  0  0  0  0  0  0  0  0  0
  -11.7560    3.4070   24.9204 C   0  0  0  0  0  0  0  0  0  0  0  0
  -10.9920    4.2249   25.7129 C   0  0  0  0  0  0  0  0  0  0  0  0
  -12.1841    1.2531   23.7500 C   0  0  0  0  0  0  0  0  0  0  0  0
  -13.0619    0.4422   24.3307 C   0  0  0  0  0  0  0  0  0  0  0  0
  -11.9955    1.3324   22.3780 C   0  0  0  0  0  0  0  0  0  0  0  0
  -13.3208    0.2935   25.5587 C   0  0  0  0  0  0  0  0  0  0  0  0
  -12.9847    0.8311   26.5458 C   0  0  0  0  0  0  0  0  0  0  0  0
  -13.3377    0.4951   28.0176 C   0  0  0  0  0  0  0  0  0  0  0  0
  -14.0598   -0.5560   28.1952 C   0  0  0  0  0  0  0  0  0  0  0  0
  -14.5403   -1.2771   27.1088 C   0  0  0  0  0  0  0  0  0  0  0  0
  -14.2029   -0.9487   25.8916 C   0  0  0  0  0  0  0  0  0  0  0  0
  -11.0443    2.2600   21.9382 C   0  0  0  0  0  0  0  0  0  0  0  0
  2  7  1  0
 10 13  1  0
 13 14  1  0
 13 15  1  0
 14 16  1  0
 15 22  1  0
  1  2  2  0
  2  3  1  0
  3  6  2  0
  6  5  1  0
  5  4  2  0
  4  1  1  0
  7  8  2  0
  8  9  1  0
  9 10  2  0
 10 11  1  0
 11 12  2  0
 12  7  1  0
 16 17  2  0
 17 18  1  0
 18 19  2  0
 19 20  1  0
 20 21  2  0
 21 16  1  0
M  END
$$$$
