No_1972-complexes_sdf/6BKW-FPZ/2024-09-17-14-21-01/
     RDKit          3D

 18 20  0  0  0  0  0  0  0  0999 V2000
   -7.7129    4.2099   27.0854 C   0  0  0  0  0  0  0  0  0  0  0  0
   -8.9133    4.4736   27.0998 C   0  0  0  0  0  0  0  0  0  0  0  0
   -9.7135    3.9633   26.0300 C   0  0  0  0  0  0  0  0  0  0  0  0
   -6.8655    4.8824   28.1822 C   0  0  0  0  0  0  0  0  0  0  0  0
   -9.2221    2.8459   25.3619 C   0  0  0  0  0  0  0  0  0  0  0  0
   -8.0164    2.2957   25.7889 C   0  0  0  0  0  0  0  0  0  0  0  0
   -7.3052    2.9474   26.8072 C   0  0  0  0  0  0  0  0  0  0  0  0
  -10.0330    2.1843   24.3790 C   0  0  0  0  0  0  0  0  0  0  0  0
   -9.7030    1.0090   23.9743 C   0  0  0  0  0  0  0  0  0  0  0  0
   -8.5172    0.3778   24.5213 C   0  0  0  0  0  0  0  0  0  0  0  0
   -7.7043    0.9883   25.3712 C   0  0  0  0  0  0  0  0  0  0  0  0
   -9.4456    5.8357   27.5951 C   0  0  0  0  0  0  0  0  0  0  0  0
  -10.4506    0.3023   22.8958 C   0  0  0  0  0  0  0  0  0  0  0  0
  -10.1759   -0.7659   22.4334 C   0  0  0  0  0  0  0  0  0  0  0  0
  -10.9343   -1.3806   21.4555 C   0  0  0  0  0  0  0  0  0  0  0  0
  -11.9988   -0.6807   20.8709 C   0  0  0  0  0  0  0  0  0  0  0  0
  -11.5627    0.9948   22.2172 C   0  0  0  0  0  0  0  0  0  0  0  0
  -12.2649    0.5114   21.2898 C   0  0  0  0  0  0  0  0  0  0  0  0
  1  4  1  0
  2 12  1  0
  9 13  1  0
  6 11  1  0
 11 10  2  0
 10  9  1  0
  9  8  2  0
  8  5  1  0
 13 14  2  0
 14 15  1  0
 15 16  2  0
 16 18  1  0
 18 17  2  0
 17 13  1  0
  1  2  2  0
  2  3  1  0
  3  5  2  0
  5  6  1  0
  6  7  2  0
  7  1  1  0
M  END
$$$$
