No_1287-complexes_sdf/6BKW-FPZ/2024-09-17-14-21-01/
     RDKit          3D

 28 32  0  0  0  0  0  0  0  0999 V2000
   -7.2496    3.8871   27.4508 C   0  0  0  0  0  0  0  0  0  0  0  0
   -7.6161    2.7143   27.1523 C   0  0  0  0  0  0  0  0  0  0  0  0
   -7.1619    1.8631   27.5232 C   0  0  0  0  0  0  0  0  0  0  0  0
   -8.0384    5.0866   27.3232 C   0  0  0  0  0  0  0  0  0  0  0  0
   -9.1223    5.1097   26.4856 C   0  0  0  0  0  0  0  0  0  0  0  0
   -8.9382    2.7289   26.5134 C   0  0  0  0  0  0  0  0  0  0  0  0
   -9.4788    1.4415   26.1106 C   0  0  1  0  0  0  0  0  0  0  0  0
   -9.6548    3.8743   26.1530 C   0  0  0  0  0  0  0  0  0  0  0  0
   -7.0458    0.6991   27.0150 C   0  0  0  0  0  0  0  0  0  0  0  0
  -10.6152    1.2026   25.4452 C   0  0  2  0  0  0  0  0  0  0  0  0
   -8.5008    0.2913   26.3881 C   0  0  1  0  0  0  0  0  0  0  0  0
  -11.6441    1.5886   26.1041 C   0  0  0  0  0  0  0  0  0  0  0  0
  -12.7526    1.9578   25.5970 C   0  0  0  0  0  0  0  0  0  0  0  0
  -10.7395   -0.1253   24.8375 C   0  0  0  0  0  0  0  0  0  0  0  0
  -10.0980   -0.5183   24.0881 C   0  0  0  0  0  0  0  0  0  0  0  0
  -13.9253    2.3897   26.3544 C   0  0  0  0  0  0  0  0  0  0  0  0
  -13.7839    2.5528   27.7282 C   0  0  0  0  0  0  0  0  0  0  0  0
  -12.5531    2.2893   28.3924 C   0  0  0  0  0  0  0  0  0  0  0  0
  -11.5291    1.8662   27.6902 C   0  0  0  0  0  0  0  0  0  0  0  0
  -10.2543   -1.8040   23.4320 C   0  0  0  0  0  0  0  0  0  0  0  0
  -11.8395   -0.9297   25.3161 C   0  0  0  0  0  0  0  0  0  0  0  0
  -12.0970   -2.1507   24.7920 C   0  0  0  0  0  0  0  0  0  0  0  0
  -11.2803   -2.5583   23.8052 C   0  0  0  0  0  0  0  0  0  0  0  0
   -7.4695    6.2568   27.6967 F   0  0  0  0  0  0  0  0  0  0  0  0
  -10.5705    2.1465   24.1786 C   0  0  0  0  0  0  0  0  0  0  0  0
   -9.6809    1.3534   27.1620 N   0  0  0  0  0  0  0  0  0  0  0  0
  -10.4810    1.3860   28.1553 C   0  0  0  0  0  0  0  0  0  0  0  0
   -8.3723    0.4680   27.2511 Cl  0  0  0  0  0  0  0  0  0  0  0  0
  2  3  1  0
  6  7  1  0
  7 10  1  0
  7 11  1  0
  9 11  1  0
 10 12  1  0
 10 14  1  0
  4 24  1  0
 10 25  1  6
  7 26  1  1
 19 27  1  0
 26 27  1  0
 11 28  1  1
  3  9  1  0
  1  2  2  0
  2  6  1  0
  6  8  2  0
  8  5  1  0
  5  4  2  0
  4  1  1  0
 14 15  2  0
 15 20  1  0
 20 23  2  0
 23 22  1  0
 22 21  2  0
 21 14  1  0
 12 13  2  0
 13 16  1  0
 16 17  2  0
 17 18  1  0
 18 19  2  0
 19 12  1  0
M  END
$$$$
