No_1992-complexes_sdf/6BKW-FPZ/2024-09-17-14-21-01/
     RDKit          3D

 15 16  0  0  0  0  0  0  0  0999 V2000
   -7.7129    4.2099   27.0854 C   0  0  0  0  0  0  0  0  0  0  0  0
   -8.2112    3.0637   26.9225 C   0  0  0  0  0  0  0  0  0  0  0  0
   -9.5629    2.7997   27.0678 C   0  0  0  0  0  0  0  0  0  0  0  0
   -8.5911    5.3704   27.2036 C   0  0  0  0  0  0  0  0  0  0  0  0
   -9.9544    5.1489   27.1401 C   0  0  0  0  0  0  0  0  0  0  0  0
  -10.4577    3.9280   27.0818 C   0  0  0  0  0  0  0  0  0  0  0  0
   -8.0077    6.7251   27.2943 C   0  0  0  0  0  0  0  0  0  0  0  0
  -10.0661    1.3994   26.9567 C   0  0  0  0  0  0  0  0  0  0  0  0
  -10.1016    0.7626   25.7584 C   0  0  0  0  0  0  0  0  0  0  0  0
   -9.6833    1.4773   24.6304 C   0  0  0  0  0  0  0  0  0  0  0  0
   -9.8458    1.2271   23.5990 C   0  0  0  0  0  0  0  0  0  0  0  0
  -10.2270   -0.1574   23.2037 C   0  0  0  0  0  0  0  0  0  0  0  0
  -10.5879   -0.9687   24.2471 C   0  0  0  0  0  0  0  0  0  0  0  0
  -10.5689   -0.5189   25.5116 C   0  0  0  0  0  0  0  0  0  0  0  0
   -8.8711    7.8432   27.1696 C   0  0  0  0  0  0  0  0  0  0  0  0
  4  7  1  0
  3  8  1  0
  7 15  1  0
  8  9  1  0
  1  2  2  0
  2  3  1  0
  3  6  2  0
  6  5  1  0
  5  4  2  0
  4  1  1  0
  9 10  2  0
 10 11  1  0
 11 12  2  0
 12 13  1  0
 13 14  2  0
 14  9  1  0
M  END
$$$$
