No_1077-complexes_sdf/6BKW-FPZ/2024-09-17-14-21-01/
     RDKit          3D

 16 17  0  0  0  0  0  0  0  0999 V2000
   -7.7129    4.2099   27.0854 C   0  0  0  0  0  0  0  0  0  0  0  0
   -7.7814    5.1722   27.8972 C   0  0  0  0  0  0  0  0  0  0  0  0
   -8.8998    3.8713   26.3707 C   0  0  0  0  0  0  0  0  0  0  0  0
   -9.7416    3.2213   26.9591 C   0  0  2  0  0  0  0  0  0  0  0  0
  -10.4037    4.0341   28.0402 C   0  0  0  0  0  0  0  0  0  0  0  0
  -11.6019    3.3299   28.6669 C   0  0  0  0  0  0  0  0  0  0  0  0
   -8.5000    6.3342   27.6885 C   0  0  0  0  0  0  0  0  0  0  0  0
  -10.0377    1.8290   26.9293 C   0  0  1  0  0  0  0  0  0  0  0  0
   -9.1334    1.0444   26.3720 C   0  0  0  0  0  0  0  0  0  0  0  0
   -9.1079   -0.2840   26.5284 C   0  0  0  0  0  0  0  0  0  0  0  0
   -7.9961   -1.0368   26.1686 C   0  0  0  0  0  0  0  0  0  0  0  0
   -7.0092   -0.4428   25.4493 C   0  0  0  0  0  0  0  0  0  0  0  0
   -7.0716    0.9003   25.1395 C   0  0  0  0  0  0  0  0  0  0  0  0
   -8.0342    1.6485   25.6724 C   0  0  0  0  0  0  0  0  0  0  0  0
  -10.6270    1.4436   28.3945 C   0  0  0  0  0  0  0  0  0  0  0  0
  -11.5764    2.0763   29.0186 C   0  0  0  0  0  0  0  0  0  0  0  0
  1  2  1  0
  1  3  1  0
  4  3  1  1
  4  5  1  0
  5  6  1  0
  2  7  1  0
  4  8  1  0
  8  9  1  1
  8 15  1  0
  6 16  1  0
 15 16  1  0
  9 10  2  0
 10 11  1  0
 11 12  2  0
 12 13  1  0
 13 14  2  0
 14  9  1  0
M  END
$$$$
