No_1875-complexes_sdf/6BKW-FPZ/2024-09-17-14-21-01/
     RDKit          3D

 14 15  0  0  0  0  0  0  0  0999 V2000
   -7.2496    3.8871   27.4508 C   0  0  0  0  0  0  0  0  0  0  0  0
   -7.6161    2.7143   27.1523 C   0  0  0  0  0  0  0  0  0  0  0  0
   -8.6212    2.2239   26.4074 C   0  0  0  0  0  0  0  0  0  0  0  0
   -8.2539    4.9237   27.1712 C   0  0  0  0  0  0  0  0  0  0  0  0
   -9.3729    4.5807   26.4433 C   0  0  0  0  0  0  0  0  0  0  0  0
   -9.5831    3.2969   26.1026 C   0  0  0  0  0  0  0  0  0  0  0  0
   -7.9303    6.3207   27.5390 C   0  0  0  0  0  0  0  0  0  0  0  0
   -8.8113    7.3692   27.0321 C   0  0  0  0  0  0  0  0  0  0  0  0
   -6.5964    1.5413   27.5720 C   0  0  0  0  0  0  0  0  0  0  0  0
   -5.4191    1.8629   28.1128 N   0  0  0  0  0  0  0  0  0  0  0  0
   -6.7330    0.1934   27.1474 C   0  0  0  0  0  0  0  0  0  0  0  0
   -4.5556    0.8602   28.3929 C   0  0  0  0  0  0  0  0  0  0  0  0
   -5.8984   -0.7597   27.5530 C   0  0  0  0  0  0  0  0  0  0  0  0
   -4.7079   -0.3999   28.2193 C   0  0  0  0  0  0  0  0  0  0  0  0
  4  7  1  0
  7  8  1  0
  2  9  1  0
  9 10  2  0
 10 12  1  0
 12 14  2  0
 14 13  1  0
 13 11  2  0
 11  9  1  0
  1  2  2  0
  2  3  1  0
  3  6  2  0
  6  5  1  0
  5  4  2  0
  4  1  1  0
M  END
$$$$
