No_1879-complexes_sdf/6BKW-FPZ/2024-09-17-14-21-01/
     RDKit          3D

 15 17  0  0  0  0  0  0  0  0999 V2000
   -7.9040    3.9820   27.1177 C   0  0  0  0  0  0  0  0  0  0  0  0
   -7.8663    4.8694   27.9238 C   0  0  0  0  0  0  0  0  0  0  0  0
   -7.4547    2.7080   27.4594 C   0  0  0  0  0  0  0  0  0  0  0  0
   -8.7044    6.0412   27.8492 C   0  0  0  0  0  0  0  0  0  0  0  0
   -7.9501    1.5743   26.8848 C   0  0  0  0  0  0  0  0  0  0  0  0
   -8.8711    1.7575   25.8527 C   0  0  0  0  0  0  0  0  0  0  0  0
   -9.3585    2.9740   25.5109 C   0  0  0  0  0  0  0  0  0  0  0  0
   -8.9270    4.1096   26.1925 C   0  0  0  0  0  0  0  0  0  0  0  0
   -9.5938    6.2934   26.8078 C   0  0  0  0  0  0  0  0  0  0  0  0
   -9.6992    5.2562   25.9699 C   0  0  0  0  0  0  0  0  0  0  0  0
   -7.3332    0.2511   27.1459 C   0  0  0  0  0  0  0  0  0  0  0  0
   -8.0930   -0.8683   27.2479 C   0  0  0  0  0  0  0  0  0  0  0  0
   -9.5262   -0.7081   27.1767 C   0  0  0  0  0  0  0  0  0  0  0  0
  -10.1602    0.1300   26.3410 C   0  0  0  0  0  0  0  0  0  0  0  0
   -9.6078    0.5994   25.4674 C   0  0  0  0  0  0  0  0  0  0  0  0
  5 11  1  0
 11 12  2  0
 12 13  1  0
 13 14  2  0
  6 15  1  0
 14 15  1  0
  1  2  2  0
  2  4  1  0
  4  9  2  0
  9 10  1  0
 10  8  2  0
  1  3  1  0
  3  5  2  0
  5  6  1  0
  6  7  2  0
  7  8  1  0
  8  1  1  0
M  END
$$$$
