No_1272-complexes_sdf/6BKW-FPZ/2024-09-17-14-21-01/
     RDKit          3D

 24 25  0  0  0  0  0  0  0  0999 V2000
   -7.7129    4.2099   27.0854 C   0  0  0  0  0  0  0  0  0  0  0  0
   -8.9133    4.4736   27.0998 C   0  0  0  0  0  0  0  0  0  0  0  0
   -9.4643    5.5426   27.7628 C   0  0  0  0  0  0  0  0  0  0  0  0
   -7.2009    2.9448   26.6134 C   0  0  0  0  0  0  0  0  0  0  0  0
   -8.0533    1.9370   26.8587 C   0  0  1  0  0  0  0  0  0  0  0  0
   -9.4086    2.0889   26.9556 C   0  0  0  0  0  0  0  0  0  0  0  0
   -9.7996    3.3139   27.5596 C   0  0  2  0  0  0  0  0  0  0  0  0
   -7.5162    0.5595   26.5517 C   0  0  0  0  0  0  0  0  0  0  0  0
   -7.2465    0.2051   25.5070 O   0  0  0  0  0  0  0  0  0  0  0  0
   -7.7490   -0.3428   27.5873 O   0  0  0  0  0  0  0  0  0  0  0  0
  -11.0176    3.4238   28.2411 C   0  0  0  0  0  0  0  0  0  0  0  0
  -12.0538    4.1917   27.7715 C   0  0  0  0  0  0  0  0  0  0  0  0
  -13.2583    4.0424   28.5058 C   0  0  0  0  0  0  0  0  0  0  0  0
  -13.2707    3.1874   29.5799 C   0  0  0  0  0  0  0  0  0  0  0  0
  -12.2969    2.3259   29.9446 C   0  0  0  0  0  0  0  0  0  0  0  0
  -11.1885    2.4149   29.2401 C   0  0  0  0  0  0  0  0  0  0  0  0
  -14.6333    3.1818   30.3529 C   0  0  1  0  0  0  0  0  0  0  0  0
  -14.7559    2.7836   31.4585 C   0  0  0  0  0  0  0  0  0  0  0  0
  -15.7354    3.7866   29.6381 C   0  0  0  0  0  0  0  0  0  0  0  0
  -14.1474    3.0705   32.4889 C   0  0  0  0  0  0  0  0  0  0  0  0
  -14.2767    2.5813   33.8539 C   0  0  0  0  0  0  0  0  0  0  0  0
  -13.5383    3.1701   34.9420 C   0  0  0  0  0  0  0  0  0  0  0  0
  -12.6509    4.2376   34.7021 C   0  0  0  0  0  0  0  0  0  0  0  0
  -12.5092    4.7475   33.4131 C   0  0  0  0  0  0  0  0  0  0  0  0
  1  2  1  0
  2  3  2  0
  1  4  1  0
  4  5  1  0
  5  6  1  0
  2  7  1  0
  6  7  1  0
  5  8  1  6
  8  9  2  0
  8 10  1  0
  7 11  1  6
 14 17  1  0
 17 18  1  0
 17 19  1  1
 18 20  2  3
 20 21  1  0
 21 22  2  3
 22 23  1  0
 23 24  2  0
 11 12  2  0
 12 13  1  0
 13 14  2  0
 14 15  1  0
 15 16  2  0
 16 11  1  0
M  END
$$$$
