No_1505-complexes_sdf/6BKW-FPZ/2024-09-17-14-21-01/
     RDKit          3D

 40 45  0  0  0  0  0  0  0  0999 V2000
   -7.9040    3.9820   27.1177 C   0  0  0  0  0  0  0  0  0  0  0  0
   -8.2057    2.8231   26.8733 C   0  0  0  0  0  0  0  0  0  0  0  0
   -8.7695    5.0740   26.7916 C   0  0  0  0  0  0  0  0  0  0  0  0
   -9.9618    4.7598   26.1630 C   0  0  0  0  0  0  0  0  0  0  0  0
   -9.4200    2.4524   26.2849 C   0  0  0  0  0  0  0  0  0  0  0  0
  -10.2590    3.4815   25.9250 C   0  0  0  0  0  0  0  0  0  0  0  0
   -8.3837    6.4702   27.0872 C   0  0  0  0  0  0  0  0  0  0  0  0
   -8.7793    7.4395   26.4317 N   0  0  0  0  0  0  0  0  0  0  0  0
   -7.1276    6.5851   27.7020 N   0  0  0  0  0  0  0  0  0  0  0  0
   -7.2838    1.6558   27.2763 C   0  0  0  0  0  0  0  0  0  0  0  0
   -7.5872    0.3238   27.1467 C   0  0  0  0  0  0  0  0  0  0  0  0
   -8.9156    0.0888   26.7501 C   0  0  0  0  0  0  0  0  0  0  0  0
   -9.7723    1.0538   26.2291 C   0  0  0  0  0  0  0  0  0  0  0  0
   -6.7080   -0.6596   27.6317 C   0  0  0  0  0  0  0  0  0  0  0  0
   -5.5005   -0.3212   27.9819 N   0  0  0  0  0  0  0  0  0  0  0  0
   -4.8309    0.6215   27.5641 C   0  0  0  0  0  0  0  0  0  0  0  0
   -3.3503    0.5131   27.8261 C   0  0  0  0  0  0  0  0  0  0  0  0
   -4.8896   -1.0191   29.1410 C   0  0  0  0  0  0  0  0  0  0  0  0
   -3.5096   -1.1155   29.2993 C   0  0  1  0  0  0  0  0  0  0  0  0
   -2.7522   -0.0159   28.9210 C   0  0  0  0  0  0  0  0  0  0  0  0
   -7.0383   -1.8550   27.5723 O   0  0  0  0  0  0  0  0  0  0  0  0
   -3.1868   -1.4938   30.7590 C   0  0  0  0  0  0  0  0  0  0  0  0
   -3.1865   -0.6661   31.7164 C   0  0  0  0  0  0  0  0  0  0  0  0
   -2.7097   -0.9464   33.0272 C   0  0  0  0  0  0  0  0  0  0  0  0
   -2.3640   -2.1900   33.3446 C   0  0  0  0  0  0  0  0  0  0  0  0
   -2.4006   -3.1536   32.3384 C   0  0  0  0  0  0  0  0  0  0  0  0
   -2.7316   -2.8339   31.0357 C   0  0  0  0  0  0  0  0  0  0  0  0
   -3.0624   -2.2811   28.3877 C   0  0  0  0  0  0  0  0  0  0  0  0
   -3.3064   -3.4214   28.5444 C   0  0  0  0  0  0  0  0  0  0  0  0
   -2.8066   -3.7562   29.9798 C   0  0  0  0  0  0  0  0  0  0  0  0
  -11.5190    3.2299   25.1904 C   0  0  0  0  0  0  0  0  0  0  0  0
  -12.6228    3.3036   25.9402 C   0  0  0  0  0  0  0  0  0  0  0  0
  -11.5093    2.8874   23.8575 C   0  0  0  0  0  0  0  0  0  0  0  0
  -10.3484    2.8421   23.1228 C   0  0  0  0  0  0  0  0  0  0  0  0
  -10.2264    2.4752   21.7921 C   0  0  0  0  0  0  0  0  0  0  0  0
  -11.3672    2.1981   21.1243 C   0  0  0  0  0  0  0  0  0  0  0  0
  -12.5948    2.2657   21.7924 C   0  0  0  0  0  0  0  0  0  0  0  0
  -12.6495    2.6300   23.1185 C   0  0  0  0  0  0  0  0  0  0  0  0
  -12.8854    3.5133   26.9112 C   0  0  0  0  0  0  0  0  0  0  0  0
  -14.1647    3.6192   27.6450 C   0  0  0  0  0  0  0  0  0  0  0  0
  3  7  1  0
  7  8  2  0
  7  9  1  0
 11 14  1  0
 14 15  1  0
 15 16  1  0
 15 18  1  0
 19 18  1  1
 17 20  1  0
 19 20  1  0
 14 21  2  0
 19 22  1  0
 19 28  1  0
 27 30  1  0
 29 30  1  0
  6 31  1  0
 31 32  2  3
 31 33  1  0
 32 39  1  0
 39 40  2  0
 16 17  1  0
 29 28  1  0
  5 13  1  0
 13 12  2  0
 12 11  1  0
 11 10  2  0
 10  2  1  0
 22 23  2  0
 23 24  1  0
 24 25  2  0
 25 26  1  0
 26 27  2  0
 27 22  1  0
 33 34  2  0
 34 35  1  0
 35 36  2  0
 36 37  1  0
 37 38  2  0
 38 33  1  0
  1  2  2  0
  2  5  1  0
  5  6  2  0
  6  4  1  0
  4  3  2  0
  3  1  1  0
M  END
$$$$
