No_1227-complexes_sdf/6BKW-FPZ/2024-09-17-14-21-01/
     RDKit          3D

 13 13  0  0  0  0  0  0  0  0999 V2000
   -7.2496    3.8871   27.4508 C   0  0  0  0  0  0  0  0  0  0  0  0
   -8.5096    4.0291   27.2770 C   0  0  0  0  0  0  0  0  0  0  0  0
   -9.3451    2.8786   26.9046 C   0  0  0  0  0  0  0  0  0  0  0  0
   -8.7138    1.7135   26.7541 C   0  0  0  0  0  0  0  0  0  0  0  0
   -6.6024    2.6286   27.4581 C   0  0  0  0  0  0  0  0  0  0  0  0
   -7.3557    1.5598   27.1381 C   0  0  0  0  0  0  0  0  0  0  0  0
   -9.1549    5.3689   27.3374 C   0  0  0  0  0  0  0  0  0  0  0  0
  -10.3407    5.4643   27.7753 F   0  0  0  0  0  0  0  0  0  0  0  0
   -8.4152    6.2867   28.1209 F   0  0  0  0  0  0  0  0  0  0  0  0
   -9.0639    5.9312   26.0607 F   0  0  0  0  0  0  0  0  0  0  0  0
   -6.6970    0.2622   27.0312 C   0  0  0  0  0  0  0  0  0  0  0  0
   -7.0251   -0.6318   26.1999 C   0  0  0  0  0  0  0  0  0  0  0  0
   -8.0809   -0.3747   25.2512 C   0  0  0  0  0  0  0  0  0  0  0  0
  2  7  1  0
  7  8  1  0
  7  9  1  0
  7 10  1  0
  6 11  1  0
 11 12  2  3
 12 13  1  0
  1  2  2  0
  2  3  1  0
  3  4  2  0
  4  6  1  0
  6  5  2  0
  5  1  1  0
M  END
$$$$
