No_1136-complexes_sdf/6BKW-FPZ/2024-09-17-14-21-01/
     RDKit          3D

 19 21  0  0  0  0  0  0  0  0999 V2000
   -7.7129    4.2099   27.0854 C   0  0  0  0  0  0  0  0  0  0  0  0
   -8.2112    3.0637   26.9225 C   0  0  0  0  0  0  0  0  0  0  0  0
   -8.5108    5.3904   26.9436 C   0  0  0  0  0  0  0  0  0  0  0  0
   -9.7256    5.1955   26.3518 C   0  0  0  0  0  0  0  0  0  0  0  0
   -9.4995    2.8258   26.4878 C   0  0  0  0  0  0  0  0  0  0  0  0
  -10.2542    3.9691   26.2055 C   0  0  0  0  0  0  0  0  0  0  0  0
   -7.9135    6.7086   27.1885 C   0  0  0  0  0  0  0  0  0  0  0  0
   -7.4198    1.9045   27.2408 N   0  0  0  0  0  0  0  0  0  0  0  0
   -7.7389    0.6189   27.0629 C   0  0  0  0  0  0  0  0  0  0  0  0
   -6.7907   -0.1694   26.4561 C   0  0  0  0  0  0  0  0  0  0  0  0
   -5.5631   -0.2298   27.0628 C   0  0  0  0  0  0  0  0  0  0  0  0
   -4.5242   -1.0055   26.5348 C   0  0  0  0  0  0  0  0  0  0  0  0
   -3.1835   -0.9169   27.0361 C   0  0  0  0  0  0  0  0  0  0  0  0
   -2.9179   -0.0032   28.1167 C   0  0  0  0  0  0  0  0  0  0  0  0
   -3.9478    0.7613   28.6808 C   0  0  0  0  0  0  0  0  0  0  0  0
   -5.2375    0.6790   28.1327 C   0  0  0  0  0  0  0  0  0  0  0  0
   -8.5936    7.8188   26.8127 N   0  0  0  0  0  0  0  0  0  0  0  0
   -6.8209    6.7927   27.7916 O   0  0  0  0  0  0  0  0  0  0  0  0
   -6.0250    2.1995   27.6695 C   0  0  0  0  0  0  0  0  0  0  0  0
  3  7  1  0
  2  8  1  0
  8  9  1  0
  9 10  1  0
 10 11  1  0
  7 17  1  0
  7 18  2  0
  8 19  1  0
 16 19  1  0
 11 12  2  0
 12 13  1  0
 13 14  2  0
 14 15  1  0
 15 16  2  0
 16 11  1  0
  1  2  2  0
  2  5  1  0
  5  6  2  0
  6  4  1  0
  4  3  2  0
  3  1  1  0
M  END
$$$$
