No_184-complexes_sdf/6BKW-FPZ/2024-09-17-14-21-01/
     RDKit          3D

 22 22  0  0  0  0  0  0  0  0999 V2000
   -7.2496    3.8871   27.4508 C   0  0  0  0  0  0  0  0  0  0  0  0
   -8.5096    4.0291   27.2770 C   0  0  0  0  0  0  0  0  0  0  0  0
   -9.3451    2.8786   26.9046 C   0  0  0  0  0  0  0  0  0  0  0  0
   -8.7138    1.7135   26.7541 C   0  0  0  0  0  0  0  0  0  0  0  0
   -6.6024    2.6286   27.4581 C   0  0  0  0  0  0  0  0  0  0  0  0
   -7.3557    1.5598   27.1381 C   0  0  0  0  0  0  0  0  0  0  0  0
   -9.1549    5.3689   27.3374 C   0  0  0  0  0  0  0  0  0  0  0  0
   -8.3270    6.5188   27.1630 C   0  0  0  0  0  0  0  0  0  0  0  0
   -6.6940    0.2513   27.0445 C   0  0  0  0  0  0  0  0  0  0  0  0
   -6.5084   -0.2678   26.0792 O   0  0  0  0  0  0  0  0  0  0  0  0
   -6.2152   -0.2079   28.2307 O   0  0  0  0  0  0  0  0  0  0  0  0
   -8.7995    7.8015   26.7572 C   0  0  0  0  0  0  0  0  0  0  0  0
   -6.1304   -1.5244   28.5228 C   0  0  0  0  0  0  0  0  0  0  0  0
   -4.9253   -1.9207   28.8847 C   0  0  0  0  0  0  0  0  0  0  0  0
   -4.1168   -0.8418   29.2641 C   0  0  1  0  0  0  0  0  0  0  0  0
   -4.0580   -0.2637   30.5432 C   0  0  0  0  0  0  0  0  0  0  0  0
   -4.5141   -0.8488   31.4835 O   0  0  0  0  0  0  0  0  0  0  0  0
   -4.1519   -0.6325   32.8022 C   0  0  0  0  0  0  0  0  0  0  0  0
   -3.1803   -0.3745   28.1869 C   0  0  0  0  0  0  0  0  0  0  0  0
   -3.2201   -0.6398   27.0959 C   0  0  0  0  0  0  0  0  0  0  0  0
   -2.6244   -0.2811   26.2035 C   0  0  0  0  0  0  0  0  0  0  0  0
   -1.7419    0.7423   26.5861 N   0  0  0  0  0  0  0  0  0  0  0  0
  2  7  1  0
  7  8  1  0
  6  9  1  0
  9 10  2  0
  9 11  1  0
  8 12  2  0
 11 13  1  0
 13 14  1  0
 15 14  1  1
 15 16  1  0
 16 17  1  0
 17 18  1  0
 15 19  1  0
 19 20  2  3
 20 21  1  0
 21 22  2  0
  1  2  2  0
  2  3  1  0
  3  4  2  0
  4  6  1  0
  6  5  2  0
  5  1  1  0
M  END
$$$$
