No_1176-complexes_sdf/6BKW-FPZ/2024-09-17-14-21-01/
     RDKit          3D

 26 29  0  0  0  0  0  0  0  0999 V2000
   -7.9040    3.9820   27.1177 C   0  0  0  0  0  0  0  0  0  0  0  0
   -9.0711    4.3164   27.0630 C   0  0  0  0  0  0  0  0  0  0  0  0
   -9.5182    5.5541   27.5777 C   0  0  0  0  0  0  0  0  0  0  0  0
   -6.9424    4.7983   27.8424 C   0  0  0  0  0  0  0  0  0  0  0  0
   -7.3526    5.9739   28.3909 C   0  0  0  0  0  0  0  0  0  0  0  0
   -8.6479    6.3742   28.2169 C   0  0  0  0  0  0  0  0  0  0  0  0
  -10.0793    3.4689   26.3368 C   0  0  0  0  0  0  0  0  0  0  0  0
  -10.8065    3.4472   25.6317 C   0  0  0  0  0  0  0  0  0  0  0  0
  -11.5555    2.3860   24.9819 C   0  0  0  0  0  0  0  0  0  0  0  0
  -11.1719    1.1467   25.4068 C   0  0  0  0  0  0  0  0  0  0  0  0
   -9.7513    1.9561   26.6459 C   0  0  0  0  0  0  0  0  0  0  0  0
  -10.2949    0.9438   26.2296 C   0  0  0  0  0  0  0  0  0  0  0  0
   -9.8840   -0.4344   26.7087 C   0  0  0  0  0  0  0  0  0  0  0  0
   -8.6575   -0.6265   27.2507 C   0  0  0  0  0  0  0  0  0  0  0  0
   -7.9351    0.5699   27.7088 C   0  0  0  0  0  0  0  0  0  0  0  0
   -8.3494    1.7453   27.5108 C   0  0  0  0  0  0  0  0  0  0  0  0
   -7.5334    2.7970   27.7386 N   0  0  0  0  0  0  0  0  0  0  0  0
  -12.6638    2.7041   24.0180 C   0  0  2  0  0  0  0  0  0  0  0  0
  -13.8905    2.9947   24.4818 C   0  0  0  0  0  0  0  0  0  0  0  0
  -12.4220    2.6124   22.6610 C   0  0  0  0  0  0  0  0  0  0  0  0
  -14.2591    3.1699   25.7205 C   0  0  0  0  0  0  0  0  0  0  0  0
  -13.4412    3.1530   26.7223 C   0  0  0  0  0  0  0  0  0  0  0  0
  -13.6954    3.3068   27.9952 C   0  0  0  0  0  0  0  0  0  0  0  0
  -12.7354    3.3315   29.0934 C   0  0  0  0  0  0  0  0  0  0  0  0
  -13.1631    3.4818   30.4438 C   0  0  0  0  0  0  0  0  0  0  0  0
  -14.3586    3.6498   30.6642 C   0  0  0  0  0  0  0  0  0  0  0  0
  2  7  1  0
  1 17  1  0
 16 17  1  0
  9 18  1  0
 18 19  1  0
 18 20  1  6
 19 21  1  0
 21 22  1  0
 22 23  2  3
 23 24  1  0
 24 25  2  3
 25 26  1  0
  7  8  2  0
  8  9  1  0
  9 10  2  0
 10 12  1  0
 11  7  1  0
 11 12  2  0
 12 13  1  0
 13 14  2  0
 14 15  1  0
 15 16  2  0
 16 11  1  0
  1  2  1  0
  2  3  2  0
  3  6  1  0
  6  5  2  0
  5  4  1  0
  4  1  2  0
M  END
$$$$
