No_1781-complexes_sdf/6BKW-FPZ/2024-09-17-14-21-01/
     RDKit          3D

 23 25  0  0  0  0  0  0  0  0999 V2000
   -7.2496    3.8871   27.4508 C   0  0  0  0  0  0  0  0  0  0  0  0
   -7.6161    2.7143   27.1523 C   0  0  0  0  0  0  0  0  0  0  0  0
   -8.8302    2.4659   26.5056 C   0  0  0  0  0  0  0  0  0  0  0  0
   -8.1584    5.0090   27.3234 C   0  0  0  0  0  0  0  0  0  0  0  0
   -9.3788    4.7965   26.7695 C   0  0  0  0  0  0  0  0  0  0  0  0
   -9.7028    3.5649   26.3276 C   0  0  0  0  0  0  0  0  0  0  0  0
   -6.5643    1.3669   27.4061 Cl  0  0  0  0  0  0  0  0  0  0  0  0
   -7.7146    6.2467   27.7301 O   0  0  0  0  0  0  0  0  0  0  0  0
  -11.0106    3.3515   25.6677 C   0  0  0  0  0  0  0  0  0  0  0  0
  -10.9472    3.0019   24.3731 C   0  0  0  0  0  0  0  0  0  0  0  0
  -12.1470    2.8599   23.5984 C   0  0  0  0  0  0  0  0  0  0  0  0
  -13.3478    3.3047   24.1441 C   0  0  0  0  0  0  0  0  0  0  0  0
  -12.1896    3.8860   26.2083 C   0  0  0  0  0  0  0  0  0  0  0  0
  -13.3613    3.8435   25.5147 C   0  0  0  0  0  0  0  0  0  0  0  0
  -12.1970    4.4494   27.6066 C   0  0  0  0  0  0  0  0  0  0  0  0
  -11.4682    3.8588   28.6068 C   0  0  0  0  0  0  0  0  0  0  0  0
  -13.6840    4.5840   28.0527 C   0  0  0  0  0  0  0  0  0  0  0  0
  -13.8728    4.9771   29.3518 C   0  0  0  0  0  0  0  0  0  0  0  0
  -14.6378    4.7948   27.0204 C   0  0  0  0  0  0  0  0  0  0  0  0
  -14.5778    4.3459   25.9349 C   0  0  0  0  0  0  0  0  0  0  0  0
   -9.4916    2.4030   23.6495 Cl  0  0  0  0  0  0  0  0  0  0  0  0
  -14.9891    5.5274   29.7839 C   0  0  0  0  0  0  0  0  0  0  0  0
  -15.2714    5.7528   31.1416 C   0  0  0  0  0  0  0  0  0  0  0  0
  2  7  1  0
  4  8  1  0
  6  9  1  0
 15 16  1  0
 17 18  1  0
 10 21  1  0
 18 22  2  3
 22 23  1  0
  1  2  2  0
  2  3  1  0
  3  6  2  0
  6  5  1  0
  5  4  2  0
  4  1  1  0
 14 20  2  0
 20 19  1  0
 19 17  2  0
 17 15  1  0
 15 13  2  0
  9 10  2  0
 10 11  1  0
 11 12  2  0
 12 14  1  0
 14 13  1  0
 13  9  1  0
M  END
$$$$
