No_110-complexes_sdf/6BKW-FPZ/2024-09-17-14-21-01/
     RDKit          3D

 13 14  0  0  0  0  0  0  0  0999 V2000
   -7.9040    3.9820   27.1177 C   0  0  0  0  0  0  0  0  0  0  0  0
   -7.8663    4.8694   27.9238 C   0  0  0  0  0  0  0  0  0  0  0  0
   -9.0491    3.8523   26.2542 C   0  0  0  0  0  0  0  0  0  0  0  0
   -8.7661    5.9491   27.9690 C   0  0  0  0  0  0  0  0  0  0  0  0
   -9.1715    2.7136   25.4037 C   0  0  0  0  0  0  0  0  0  0  0  0
   -9.8832    5.8611   27.1405 C   0  0  0  0  0  0  0  0  0  0  0  0
  -10.0016    4.7998   26.3324 C   0  0  0  0  0  0  0  0  0  0  0  0
   -8.6503    1.5562   25.7402 N   0  0  0  0  0  0  0  0  0  0  0  0
   -8.0065    1.4001   26.8289 C   0  0  0  0  0  0  0  0  0  0  0  0
   -7.3468    2.5789   27.4545 C   0  0  0  0  0  0  0  0  0  0  0  0
   -8.9327    0.3854   24.9212 C   0  0  0  0  0  0  0  0  0  0  0  0
   -9.2024    0.5595   23.7072 C   0  0  0  0  0  0  0  0  0  0  0  0
   -9.8690    2.8692   24.3475 O   0  0  0  0  0  0  0  0  0  0  0  0
  3  5  1  0
  5  8  1  0
  8  9  1  0
  1 10  1  0
  9 10  1  0
  8 11  1  0
 11 12  1  0
  5 13  2  0
  1  2  2  0
  2  4  1  0
  4  6  2  0
  6  7  1  0
  7  3  2  0
  3  1  1  0
M  END
$$$$
