No_1419-complexes_sdf/6BKW-FPZ/2024-09-17-14-21-01/
     RDKit          3D

 21 22  0  0  0  0  0  0  0  0999 V2000
   -7.7129    4.2099   27.0854 C   0  0  0  0  0  0  0  0  0  0  0  0
   -8.9133    4.4736   27.0998 C   0  0  0  0  0  0  0  0  0  0  0  0
   -9.7135    3.9633   26.0300 C   0  0  0  0  0  0  0  0  0  0  0  0
   -6.8655    4.8824   28.1822 C   0  0  0  0  0  0  0  0  0  0  0  0
   -9.2221    2.8459   25.3619 C   0  0  0  0  0  0  0  0  0  0  0  0
   -8.0164    2.2957   25.7889 C   0  0  0  0  0  0  0  0  0  0  0  0
   -7.3052    2.9474   26.8072 C   0  0  0  0  0  0  0  0  0  0  0  0
   -9.8657    2.1532   24.5028 F   0  0  0  0  0  0  0  0  0  0  0  0
   -9.3977    5.7337   27.4761 F   0  0  0  0  0  0  0  0  0  0  0  0
   -5.7607    2.4098   27.3883 Cl  0  0  0  0  0  0  0  0  0  0  0  0
   -7.3733    6.0388   28.6106 O   0  0  0  0  0  0  0  0  0  0  0  0
  -10.8711    4.4750   25.5972 O   0  0  0  0  0  0  0  0  0  0  0  0
  -11.8356    3.7380   25.1674 C   0  0  2  0  0  0  0  0  0  0  0  0
  -12.3203    4.0467   23.9119 C   0  0  0  0  0  0  0  0  0  0  0  0
  -11.5757    4.8160   23.0114 C   0  0  0  0  0  0  0  0  0  0  0  0
  -13.5996    3.6759   23.4428 C   0  0  0  0  0  0  0  0  0  0  0  0
  -11.3198    4.5390   21.8800 C   0  0  0  0  0  0  0  0  0  0  0  0
  -13.7197    3.6370   22.0140 C   0  0  0  0  0  0  0  0  0  0  0  0
  -12.6404    4.1045   21.2357 C   0  0  0  0  0  0  0  0  0  0  0  0
  -12.9250    3.9381   26.1651 F   0  0  0  0  0  0  0  0  0  0  0  0
  -11.8421    2.1990   25.2611 C   0  0  0  0  0  0  0  0  0  0  0  0
  1  4  1  0
  5  8  1  0
  2  9  1  0
  7 10  1  0
  4 11  1  0
  3 12  1  0
 12 13  1  0
 13 14  1  0
 13 20  1  0
 13 21  1  6
 14 15  2  0
 15 17  1  0
 17 19  2  0
 19 18  1  0
 18 16  2  0
 16 14  1  0
  1  2  2  0
  2  3  1  0
  3  5  2  0
  5  6  1  0
  6  7  2  0
  7  1  1  0
M  END
$$$$
