No_1694-complexes_sdf/6BKW-FPZ/2024-09-17-14-21-01/
     RDKit          3D

 23 25  0  0  0  0  0  0  0  0999 V2000
   -7.7129    4.2099   27.0854 C   0  0  0  0  0  0  0  0  0  0  0  0
   -8.2112    3.0637   26.9225 C   0  0  0  0  0  0  0  0  0  0  0  0
   -8.5108    5.3904   26.9436 C   0  0  0  0  0  0  0  0  0  0  0  0
   -9.7256    5.1955   26.3518 C   0  0  0  0  0  0  0  0  0  0  0  0
   -9.4995    2.8258   26.4878 C   0  0  0  0  0  0  0  0  0  0  0  0
  -10.2542    3.9691   26.2055 C   0  0  0  0  0  0  0  0  0  0  0  0
   -7.9468    6.6176   27.1669 N   0  0  0  0  0  0  0  0  0  0  0  0
   -7.5929    1.7107   27.2180 C   0  0  0  0  0  0  0  0  0  0  0  0
   -6.2958    1.7759   27.6505 N   0  0  0  0  0  0  0  0  0  0  0  0
   -5.6454    0.6024   27.9060 C   0  0  0  0  0  0  0  0  0  0  0  0
   -6.2674   -0.5484   27.8263 C   0  0  0  0  0  0  0  0  0  0  0  0
   -8.0351    0.4626   27.1553 C   0  0  0  0  0  0  0  0  0  0  0  0
   -7.5287   -0.6369   27.4945 C   0  0  0  0  0  0  0  0  0  0  0  0
   -4.1649    0.8324   28.3653 C   0  0  0  0  0  0  0  0  0  0  0  0
   -3.6018    0.1476   29.0555 O   0  0  0  0  0  0  0  0  0  0  0  0
   -3.6702    2.0336   28.0730 O   0  0  0  0  0  0  0  0  0  0  0  0
   -8.3081    7.7984   26.5358 C   0  0  0  0  0  0  0  0  0  0  0  0
  -11.5742    3.8503   25.5603 C   0  0  0  0  0  0  0  0  0  0  0  0
  -12.0586    2.7010   25.1579 C   0  0  0  0  0  0  0  0  0  0  0  0
  -13.2316    2.6466   24.5285 C   0  0  0  0  0  0  0  0  0  0  0  0
  -13.9995    3.8343   24.3362 C   0  0  0  0  0  0  0  0  0  0  0  0
  -13.5625    5.0494   24.8470 C   0  0  0  0  0  0  0  0  0  0  0  0
  -12.3575    5.0999   25.4597 C   0  0  0  0  0  0  0  0  0  0  0  0
  3  7  1  0
  2  8  1  0
 10 14  1  0
 14 15  2  0
 14 16  1  0
  7 17  1  0
  6 18  1  0
 18 19  2  0
 19 20  1  0
 20 21  2  0
 21 22  1  0
 22 23  2  0
 23 18  1  0
  1  2  2  0
  2  5  1  0
  5  6  2  0
  6  4  1  0
  4  3  2  0
  3  1  1  0
  8  9  2  0
  9 10  1  0
 10 11  2  0
 11 13  1  0
 13 12  2  0
 12  8  1  0
M  END
$$$$
