No_1639-complexes_sdf/6BKW-FPZ/2024-09-17-14-21-01/
     RDKit          3D

 39 44  0  0  0  0  0  0  0  0999 V2000
   -7.2496    3.8871   27.4508 C   0  0  0  0  0  0  0  0  0  0  0  0
   -7.9379    4.9063   27.8518 C   0  0  0  0  0  0  0  0  0  0  0  0
   -9.3460    4.8223   27.8695 C   0  0  0  0  0  0  0  0  0  0  0  0
   -7.8628    2.6163   27.1065 C   0  0  0  0  0  0  0  0  0  0  0  0
   -9.2787    2.5744   27.1970 C   0  0  0  0  0  0  0  0  0  0  0  0
  -10.0108    3.6770   27.6340 C   0  0  0  0  0  0  0  0  0  0  0  0
  -11.4855    3.5731   27.7420 C   0  0  0  0  0  0  0  0  0  0  0  0
  -11.9299    2.8562   28.8221 C   0  0  0  0  0  0  0  0  0  0  0  0
  -13.2938    2.7194   29.1618 C   0  0  0  0  0  0  0  0  0  0  0  0
  -14.1926    3.3847   28.3454 C   0  0  0  0  0  0  0  0  0  0  0  0
  -13.7349    4.1610   27.2718 C   0  0  0  0  0  0  0  0  0  0  0  0
  -12.3654    4.3305   26.9983 C   0  0  0  0  0  0  0  0  0  0  0  0
   -7.1182    1.4574   26.7825 C   0  0  0  0  0  0  0  0  0  0  0  0
   -6.0616    1.1805   27.4822 O   0  0  0  0  0  0  0  0  0  0  0  0
   -7.6144    0.5866   26.0230 O   0  0  0  0  0  0  0  0  0  0  0  0
   -7.3106    6.0584   28.1210 F   0  0  0  0  0  0  0  0  0  0  0  0
   -5.4269   -0.0311   27.5733 C   0  0  1  0  0  0  0  0  0  0  0  0
   -4.3437   -0.1009   28.5682 C   0  0  0  0  0  0  0  0  0  0  0  0
   -3.7062    0.7963   28.8697 C   0  0  0  0  0  0  0  0  0  0  0  0
   -4.2778   -1.4301   29.2274 C   0  0  0  0  0  0  0  0  0  0  0  0
   -3.2933   -1.6178   30.2307 C   0  0  0  0  0  0  0  0  0  0  0  0
   -3.1905   -2.8775   30.8357 C   0  0  0  0  0  0  0  0  0  0  0  0
   -2.7341    0.6738   30.0000 C   0  0  0  0  0  0  0  0  0  0  0  0
   -2.5242   -0.5006   30.6275 C   0  0  0  0  0  0  0  0  0  0  0  0
   -3.8337   -3.7027   30.7131 C   0  0  0  0  0  0  0  0  0  0  0  0
   -5.0917   -3.5899   30.0454 C   0  0  0  0  0  0  0  0  0  0  0  0
   -5.2564   -2.4165   29.1222 C   0  0  0  0  0  0  0  0  0  0  0  0
   -6.4776   -2.3570   28.3360 C   0  0  0  0  0  0  0  0  0  0  0  0
   -7.4748   -3.2553   28.2470 C   0  0  1  0  0  0  0  0  0  0  0  0
   -6.5102   -0.9823   27.5814 C   0  0  0  0  0  0  0  0  0  0  0  0
   -8.6082   -3.0177   29.0633 C   0  0  0  0  0  0  0  0  0  0  0  0
   -9.6372   -2.8811   28.9098 C   0  0  0  0  0  0  0  0  0  0  0  0
  -10.7692   -2.5323   29.8453 C   0  0  0  0  0  0  0  0  0  0  0  0
  -10.4350   -2.6222   31.2030 C   0  0  0  0  0  0  0  0  0  0  0  0
   -9.0889   -2.8774   31.5533 C   0  0  0  0  0  0  0  0  0  0  0  0
   -8.1436   -3.1081   30.6012 C   0  0  0  0  0  0  0  0  0  0  0  0
   -7.5118   -4.1981   27.2573 C   0  0  0  0  0  0  0  0  0  0  0  0
   -8.0170   -3.9117   26.0803 C   0  0  0  0  0  0  0  0  0  0  0  0
   -8.0818   -4.8595   25.0606 C   0  0  0  0  0  0  0  0  0  0  0  0
  6  7  1  0
  4 13  1  0
 13 14  1  0
 13 15  2  0
  2 16  1  0
 17 14  1  1
 17 18  1  0
 27 28  1  0
 29 28  1  6
 17 30  1  0
 28 30  1  0
 29 31  1  0
 29 37  1  0
 37 38  2  3
 38 39  1  0
  1  2  2  0
  2  3  1  0
  3  6  2  0
  6  5  1  0
  5  4  2  0
  4  1  1  0
 18 19  2  0
 19 23  1  0
 23 24  2  0
 24 21  1  0
 20 18  1  0
 31 32  2  0
 32 33  1  0
 33 34  2  0
 34 35  1  0
 35 36  2  0
 36 31  1  0
  7  8  2  0
  8  9  1  0
  9 10  2  0
 10 11  1  0
 11 12  2  0
 12  7  1  0
 20 21  2  0
 21 22  1  0
 22 25  2  0
 25 26  1  0
 26 27  2  0
 27 20  1  0
M  END
$$$$
