No_1116-complexes_sdf/6BKW-FPZ/2024-09-17-14-21-01/
     RDKit          3D

 21 23  0  0  0  0  0  0  0  0999 V2000
   -7.9040    3.9820   27.1177 C   0  0  0  0  0  0  0  0  0  0  0  0
   -9.0711    4.3164   27.0630 C   0  0  0  0  0  0  0  0  0  0  0  0
   -9.8698    3.9665   25.9494 C   0  0  0  0  0  0  0  0  0  0  0  0
   -7.4046    2.7946   26.4568 C   0  0  0  0  0  0  0  0  0  0  0  0
   -8.3659    2.1310   25.6816 C   0  0  0  0  0  0  0  0  0  0  0  0
  -11.1286    4.5770   25.7029 C   0  0  0  0  0  0  0  0  0  0  0  0
   -9.5689    2.7557   25.3149 C   0  0  0  0  0  0  0  0  0  0  0  0
   -6.7916    4.6630   28.3228 Cl  0  0  0  0  0  0  0  0  0  0  0  0
  -11.9493    4.5131   26.7647 C   0  0  0  0  0  0  0  0  0  0  0  0
  -12.4905    3.3914   27.2503 C   0  0  0  0  0  0  0  0  0  0  0  0
  -12.9376    3.3011   28.5628 C   0  0  0  0  0  0  0  0  0  0  0  0
  -12.5779    2.1961   29.3542 C   0  0  0  0  0  0  0  0  0  0  0  0
  -12.1796    0.9845   28.7040 C   0  0  0  0  0  0  0  0  0  0  0  0
  -11.7444    1.0847   27.3695 C   0  0  0  0  0  0  0  0  0  0  0  0
  -11.8772    2.2780   26.7199 C   0  0  0  0  0  0  0  0  0  0  0  0
  -11.6058    2.1621   25.2935 C   0  0  0  0  0  0  0  0  0  0  0  0
  -10.3990    2.1939   24.5084 N   0  0  0  0  0  0  0  0  0  0  0  0
  -10.1255    0.9693   23.8523 C   0  0  0  0  0  0  0  0  0  0  0  0
  -12.8180    1.9230   24.4775 C   0  0  0  0  0  0  0  0  0  0  0  0
   -9.8310    1.1282   22.4899 C   0  0  0  0  0  0  0  0  0  0  0  0
  -13.1189    2.5997   23.3914 C   0  0  0  0  0  0  0  0  0  0  0  0
  3  6  1  0
  1  8  1  0
  6  9  1  0
  9 10  1  0
 15 16  1  0
  7 17  1  0
 16 17  1  0
 17 18  1  0
 16 19  1  0
 18 20  1  0
 19 21  1  0
  1  2  2  0
  2  3  1  0
  3  7  2  0
  7  5  1  0
  5  4  2  0
  4  1  1  0
 10 11  2  0
 11 12  1  0
 12 13  2  0
 13 14  1  0
 14 15  2  0
 15 10  1  0
M  END
$$$$
