No_1357-complexes_sdf/6BKW-FPZ/2024-09-17-14-21-01/
     RDKit          3D

 20 22  0  0  0  0  0  0  0  0999 V2000
   -7.9040    3.9820   27.1177 C   0  0  0  0  0  0  0  0  0  0  0  0
   -8.2057    2.8231   26.8733 C   0  0  0  0  0  0  0  0  0  0  0  0
   -9.2962    2.4021   26.1155 C   0  0  0  0  0  0  0  0  0  0  0  0
   -8.7358    5.0662   26.5917 C   0  0  0  0  0  0  0  0  0  0  0  0
   -8.4603    6.4492   26.8781 C   0  0  0  0  0  0  0  0  0  0  0  0
  -10.1146    3.3815   25.6105 C   0  0  0  0  0  0  0  0  0  0  0  0
   -9.8194    4.7235   25.8263 C   0  0  0  0  0  0  0  0  0  0  0  0
   -8.0989    7.5398   27.0611 N   0  0  0  0  0  0  0  0  0  0  0  0
   -9.3254    0.9257   25.9564 C   0  0  0  0  0  0  0  0  0  0  0  0
   -9.1151    0.3326   25.0001 C   0  0  0  0  0  0  0  0  0  0  0  0
   -9.1899   -1.1222   24.8441 C   0  0  0  0  0  0  0  0  0  0  0  0
   -9.5700   -1.8275   25.9686 C   0  0  0  0  0  0  0  0  0  0  0  0
   -9.6813    0.1031   27.1669 C   0  0  0  0  0  0  0  0  0  0  0  0
   -9.8370   -1.1831   27.1969 C   0  0  0  0  0  0  0  0  0  0  0  0
  -10.2395   -1.9512   28.3785 C   0  0  0  0  0  0  0  0  0  0  0  0
   -9.3064   -2.5559   29.1131 C   0  0  0  0  0  0  0  0  0  0  0  0
   -9.6425   -3.1105   30.3790 C   0  0  0  0  0  0  0  0  0  0  0  0
  -11.6063   -1.8727   28.7733 C   0  0  0  0  0  0  0  0  0  0  0  0
  -11.9700   -2.4550   30.0357 C   0  0  0  0  0  0  0  0  0  0  0  0
  -10.9759   -3.0437   30.8299 C   0  0  0  0  0  0  0  0  0  0  0  0
  4  5  1  0
  5  8  3  0
  3  9  1  0
 14 15  1  0
  1  2  2  0
  2  3  1  0
  3  6  2  0
  6  7  1  0
  7  4  2  0
  4  1  1  0
 15 16  2  0
 16 17  1  0
 17 20  2  0
 20 19  1  0
 19 18  2  0
 18 15  1  0
  9 10  2  0
 10 11  1  0
 11 12  2  0
 12 14  1  0
 14 13  2  0
 13  9  1  0
M  END
$$$$
