No_1310-complexes_sdf/6BKW-FPZ/2024-09-17-14-21-01/
     RDKit          3D

 39 42  0  0  0  0  0  0  0  0999 V2000
   -7.7129    4.2099   27.0854 C   0  0  0  0  0  0  0  0  0  0  0  0
   -7.7814    5.1722   27.8972 C   0  0  0  0  0  0  0  0  0  0  0  0
   -7.2983    2.9533   27.5684 C   0  0  0  0  0  0  0  0  0  0  0  0
   -6.9398    2.0472   26.9820 C   0  0  0  0  0  0  0  0  0  0  0  0
   -7.4684    0.9067   27.0012 C   0  0  0  0  0  0  0  0  0  0  0  0
   -8.2904    6.4172   27.4155 C   0  0  0  0  0  0  0  0  0  0  0  0
   -8.9562    6.5348   26.1740 C   0  0  0  0  0  0  0  0  0  0  0  0
   -8.7564    0.7179   27.5796 C   0  0  0  0  0  0  0  0  0  0  0  0
   -9.4069   -0.5616   27.6205 C   0  0  0  0  0  0  0  0  0  0  0  0
   -9.0728    5.3474   25.4567 C   0  0  0  0  0  0  0  0  0  0  0  0
   -8.5460    4.1612   25.9476 C   0  0  0  0  0  0  0  0  0  0  0  0
  -10.6426   -0.7153   28.2917 C   0  0  0  0  0  0  0  0  0  0  0  0
  -11.1960   -1.9377   28.5063 C   0  0  0  0  0  0  0  0  0  0  0  0
  -10.5085   -3.0277   28.0111 C   0  0  0  0  0  0  0  0  0  0  0  0
   -9.3498   -2.9481   27.4034 C   0  0  0  0  0  0  0  0  0  0  0  0
   -8.7047   -1.6961   27.2825 C   0  0  0  0  0  0  0  0  0  0  0  0
   -6.8338   -0.3175   26.4636 C   0  0  0  0  0  0  0  0  0  0  0  0
   -7.5003   -1.6065   26.6410 C   0  0  0  0  0  0  0  0  0  0  0  0
  -12.5427   -2.0292   29.1668 C   0  0  2  0  0  0  0  0  0  0  0  0
  -13.4794   -0.8395   29.4808 Cl  0  0  0  0  0  0  0  0  0  0  0  0
  -13.0768   -3.5864   29.6802 P   0  0  0  0  0  0  0  0  0  0  0  0
  -14.3407   -3.3347   30.3116 O   0  0  0  0  0  0  0  0  0  0  0  0
  -12.0497   -3.9769   30.6523 O   0  0  0  0  0  0  0  0  0  0  0  0
  -13.1499   -4.4450   28.5150 O   0  0  0  0  0  0  0  0  0  0  0  0
   -9.8303    5.3296   24.3514 O   0  0  0  0  0  0  0  0  0  0  0  0
  -10.6139    4.2375   24.0030 C   0  0  0  0  0  0  0  0  0  0  0  0
  -11.2295    4.3092   22.7716 C   0  0  0  0  0  0  0  0  0  0  0  0
  -11.9979    3.2684   22.2255 C   0  0  0  0  0  0  0  0  0  0  0  0
  -12.1580    2.1200   23.0295 C   0  0  0  0  0  0  0  0  0  0  0  0
  -11.5410    2.0402   24.2907 C   0  0  0  0  0  0  0  0  0  0  0  0
  -10.7500    3.1097   24.7924 C   0  0  0  0  0  0  0  0  0  0  0  0
  -11.7066    0.7673   25.0533 C   0  0  0  0  0  0  0  0  0  0  0  0
  -11.1782   -0.3806   24.5506 C   0  0  0  0  0  0  0  0  0  0  0  0
  -10.3097   -0.5084   23.4799 C   0  0  0  0  0  0  0  0  0  0  0  0
   -9.8337   -1.3666   23.0601 C   0  0  0  0  0  0  0  0  0  0  0  0
  -10.2113   -2.6952   23.6304 C   0  0  0  0  0  0  0  0  0  0  0  0
   -9.6576   -3.9022   23.1185 C   0  0  0  0  0  0  0  0  0  0  0  0
  -11.5194   -1.6797   25.0575 C   0  0  0  0  0  0  0  0  0  0  0  0
  -11.0867   -2.8217   24.5537 C   0  0  0  0  0  0  0  0  0  0  0  0
  1  3  1  0
  3  4  1  0
 13 19  1  0
 19 20  1  1
 19 21  1  0
 21 22  1  0
 21 23  1  0
 21 24  2  0
 10 25  1  0
 25 26  1  0
 30 32  1  0
 32 33  2  3
 33 34  1  0
 34 35  2  3
 35 36  1  0
 36 37  2  0
 33 38  1  0
 38 39  1  0
  4  5  1  0
 26 27  2  0
 27 28  1  0
 28 29  2  0
 29 30  1  0
 30 31  2  0
 31 26  1  0
  9 12  2  0
 12 13  1  0
 13 14  2  0
 14 15  1  0
 15 16  2  0
  5  8  2  0
  8  9  1  0
  9 16  1  0
 16 18  1  0
 18 17  2  0
 17  5  1  0
  1  2  2  0
  2  6  1  0
  6  7  2  0
  7 10  1  0
 10 11  2  0
 11  1  1  0
M  END
$$$$
