No_1540-complexes_sdf/6BKW-FPZ/2024-09-17-14-21-01/
     RDKit          3D

 19 21  0  0  0  0  0  0  0  0999 V2000
   -7.2496    3.8871   27.4508 C   0  0  0  0  0  0  0  0  0  0  0  0
   -7.6161    2.7143   27.1523 C   0  0  0  0  0  0  0  0  0  0  0  0
   -6.9719    1.5838   27.5324 C   0  0  0  0  0  0  0  0  0  0  0  0
   -5.6316    1.7305   27.9933 C   0  0  0  0  0  0  0  0  0  0  0  0
   -8.0192    5.1128   27.1337 C   0  0  0  0  0  0  0  0  0  0  0  0
   -9.1382    4.9916   26.3588 C   0  0  0  0  0  0  0  0  0  0  0  0
   -9.5792    3.7408   25.9480 C   0  0  0  0  0  0  0  0  0  0  0  0
   -8.8585    2.5502   26.3623 C   0  0  0  0  0  0  0  0  0  0  0  0
   -4.9314    0.5023   28.3436 C   0  0  0  0  0  0  0  0  0  0  0  0
   -5.5238   -0.6977   28.3278 C   0  0  0  0  0  0  0  0  0  0  0  0
   -7.3949    0.2554   27.5044 C   0  0  0  0  0  0  0  0  0  0  0  0
   -6.7795   -0.8063   27.9175 C   0  0  0  0  0  0  0  0  0  0  0  0
   -7.5799    6.4394   27.6117 C   0  0  0  0  0  0  0  0  0  0  0  0
   -8.2711    7.5034   27.1485 N   0  0  0  0  0  0  0  0  0  0  0  0
   -3.4998    0.7203   28.8876 C   0  0  0  0  0  0  0  0  0  0  0  0
   -2.5977   -0.0975   28.2314 C   0  0  0  0  0  0  0  0  0  0  0  0
   -2.9271   -1.1979   27.7478 C   0  0  0  0  0  0  0  0  0  0  0  0
   -4.2995   -1.5840   27.7532 N   0  0  0  0  0  0  0  0  0  0  0  0
  -10.8974    3.6004   24.9267 Cl  0  0  0  0  0  0  0  0  0  0  0  0
  2  3  1  0
  5 13  1  0
 13 14  2  0
  7 19  1  0
 10 18  2  0
 18 17  1  0
 17 16  2  0
 16 15  1  0
 15  9  2  0
  1  2  2  0
  2  8  1  0
  8  7  2  0
  7  6  1  0
  6  5  2  0
  5  1  1  0
  3  4  2  0
  4  9  1  0
  9 10  1  0
 10 12  1  0
 12 11  2  0
 11  3  1  0
M  END
$$$$
