No_1735-complexes_sdf/6BKW-FPZ/2024-09-17-14-21-01/
     RDKit          3D

 16 16  0  0  0  0  0  0  0  0999 V2000
   -7.9040    3.9820   27.1177 C   0  0  0  0  0  0  0  0  0  0  0  0
   -8.2057    2.8231   26.8733 C   0  0  0  0  0  0  0  0  0  0  0  0
   -8.7695    5.0740   26.7916 C   0  0  0  0  0  0  0  0  0  0  0  0
   -9.9618    4.7598   26.1630 C   0  0  0  0  0  0  0  0  0  0  0  0
   -9.4200    2.4524   26.2849 C   0  0  0  0  0  0  0  0  0  0  0  0
  -10.2590    3.4815   25.9250 C   0  0  0  0  0  0  0  0  0  0  0  0
   -8.3837    6.4702   27.0872 C   0  0  0  0  0  0  0  0  0  0  0  0
   -7.7610    6.8612   28.1191 N   0  0  0  0  0  0  0  0  0  0  0  0
   -8.6350    7.3321   26.1712 O   0  0  0  0  0  0  0  0  0  0  0  0
   -7.2744    1.6753   27.2915 C   0  0  0  0  0  0  0  0  0  0  0  0
   -6.3513    2.0617   28.0669 F   0  0  0  0  0  0  0  0  0  0  0  0
   -7.0014    0.9652   26.1857 F   0  0  0  0  0  0  0  0  0  0  0  0
   -7.9930    0.7651   28.1126 F   0  0  0  0  0  0  0  0  0  0  0  0
  -11.4859    3.1744   25.1594 C   0  0  0  0  0  0  0  0  0  0  0  0
  -12.6212    3.0775   25.8671 C   0  0  0  0  0  0  0  0  0  0  0  0
  -13.8580    2.8098   25.2278 C   0  0  0  0  0  0  0  0  0  0  0  0
  3  7  1  0
  7  8  1  0
  7  9  2  0
  2 10  1  0
 10 11  1  0
 10 12  1  0
 10 13  1  0
  6 14  1  0
 14 15  2  3
 15 16  1  0
  1  2  2  0
  2  5  1  0
  5  6  2  0
  6  4  1  0
  4  3  2  0
  3  1  1  0
M  END
$$$$
