No_1273-complexes_sdf/6BKW-FPZ/2024-09-17-14-21-01/
     RDKit          3D

 18 20  0  0  0  0  0  0  0  0999 V2000
   -7.7129    4.2099   27.0854 C   0  0  0  0  0  0  0  0  0  0  0  0
   -8.9133    4.4736   27.0998 C   0  0  0  0  0  0  0  0  0  0  0  0
   -9.7937    3.7367   26.2091 C   0  0  0  0  0  0  0  0  0  0  0  0
   -6.8266    5.0441   28.0594 C   0  0  0  0  0  0  0  0  0  0  0  0
  -11.0884    4.1572   25.9278 C   0  0  0  0  0  0  0  0  0  0  0  0
  -11.8573    3.5481   24.9807 C   0  0  0  0  0  0  0  0  0  0  0  0
  -11.2980    2.5062   24.2454 C   0  0  0  0  0  0  0  0  0  0  0  0
  -10.0337    2.1019   24.4722 C   0  0  0  0  0  0  0  0  0  0  0  0
   -9.2188    2.7542   25.3939 C   0  0  0  0  0  0  0  0  0  0  0  0
   -9.0776    5.8393   27.5552 C   0  0  0  0  0  0  0  0  0  0  0  0
   -7.8232    6.1486   28.3133 C   0  0  0  0  0  0  0  0  0  0  0  0
   -9.4490    0.9677   23.6975 C   0  0  0  0  0  0  0  0  0  0  0  0
   -8.5324    0.1577   24.2663 C   0  0  0  0  0  0  0  0  0  0  0  0
   -7.9193   -0.8770   23.5002 C   0  0  0  0  0  0  0  0  0  0  0  0
   -6.8422   -1.6477   24.0106 C   0  0  0  0  0  0  0  0  0  0  0  0
   -6.3780   -1.3423   25.3011 C   0  0  0  0  0  0  0  0  0  0  0  0
   -6.9687   -0.3575   26.0779 C   0  0  0  0  0  0  0  0  0  0  0  0
   -8.0179    0.4682   25.5549 C   0  0  0  0  0  0  0  0  0  0  0  0
  1  2  2  0
  2  3  1  0
  1  4  1  0
  2 10  1  0
  4 11  1  0
 10 11  2  0
  8 12  1  0
 12 13  1  0
 13 14  2  0
 14 15  1  0
 15 16  2  0
 16 17  1  0
 17 18  2  0
 18 13  1  0
  3  5  2  0
  5  6  1  0
  6  7  2  0
  7  8  1  0
  8  9  2  0
  9  3  1  0
M  END
$$$$
