No_1282-complexes_sdf/6BKW-FPZ/2024-09-17-14-21-01/
     RDKit          3D

 12 12  0  0  0  0  0  0  0  0999 V2000
   -7.2496    3.8871   27.4508 C   0  0  0  0  0  0  0  0  0  0  0  0
   -8.5096    4.0291   27.2770 C   0  0  0  0  0  0  0  0  0  0  0  0
   -9.2669    5.1645   27.5845 C   0  0  2  0  0  0  0  0  0  0  0  0
  -10.6621    5.2321   27.4284 C   0  0  0  0  0  0  0  0  0  0  0  0
   -9.2831    2.8719   26.7564 C   0  0  0  0  0  0  0  0  0  0  0  0
   -8.5831    1.7059   26.4529 C   0  0  0  0  0  0  0  0  0  0  0  0
   -6.5244    2.6560   27.3972 C   0  0  0  0  0  0  0  0  0  0  0  0
   -7.2358    1.5939   26.8620 C   0  0  0  0  0  0  0  0  0  0  0  0
   -8.5960    6.4660   27.0533 C   0  0  0  0  0  0  0  0  0  0  0  0
   -6.4101    0.1117   26.6293 Cl  0  0  0  0  0  0  0  0  0  0  0  0
   -8.2406    7.3952   27.5633 C   0  0  0  0  0  0  0  0  0  0  0  0
   -7.5035    8.4605   26.7239 C   0  0  0  0  0  0  0  0  0  0  0  0
  2  3  1  0
  3  4  1  6
  3  9  1  0
  8 10  1  0
  9 11  2  3
 11 12  1  0
  1  2  2  0
  2  5  1  0
  5  6  2  0
  6  8  1  0
  8  7  2  0
  7  1  1  0
M  END
$$$$
