No_1629-complexes_sdf/6BKW-FPZ/2024-09-17-14-21-01/
     RDKit          3D

 40 43  0  0  0  0  0  0  0  0999 V2000
   -7.7129    4.2099   27.0854 C   0  0  0  0  0  0  0  0  0  0  0  0
   -8.2112    3.0637   26.9225 C   0  0  0  0  0  0  0  0  0  0  0  0
   -8.5108    5.3904   26.9436 C   0  0  0  0  0  0  0  0  0  0  0  0
   -7.9752    6.6981   27.2112 C   0  0  0  0  0  0  0  0  0  0  0  0
   -9.5213    2.8208   26.4688 C   0  0  0  0  0  0  0  0  0  0  0  0
  -10.2979    3.9327   26.2378 C   0  0  0  0  0  0  0  0  0  0  0  0
   -9.7894    5.2123   26.4395 C   0  0  0  0  0  0  0  0  0  0  0  0
   -7.1634    1.9300   27.2317 C   0  0  0  0  0  0  0  0  0  0  0  0
   -6.0613    2.2299   27.7617 N   0  0  0  0  0  0  0  0  0  0  0  0
   -5.0958    1.1084   28.0071 C   0  0  0  0  0  0  0  0  0  0  0  0
   -3.8336    1.3403   28.6290 C   0  0  0  0  0  0  0  0  0  0  0  0
   -5.4778   -0.1491   27.5915 C   0  0  0  0  0  0  0  0  0  0  0  0
   -7.8060    0.7872   27.0871 O   0  0  0  0  0  0  0  0  0  0  0  0
   -4.4979   -1.1594   27.9165 C   0  0  0  0  0  0  0  0  0  0  0  0
   -3.0002    0.3426   28.9352 C   0  0  0  0  0  0  0  0  0  0  0  0
   -3.3312   -0.9222   28.5842 C   0  0  0  0  0  0  0  0  0  0  0  0
   -8.6311    7.8108   26.7947 N   0  0  0  0  0  0  0  0  0  0  0  0
   -6.8449    6.7870   27.7428 F   0  0  0  0  0  0  0  0  0  0  0  0
   -2.3909   -2.0336   28.8532 C   0  0  0  0  0  0  0  0  0  0  0  0
   -1.4686   -1.9319   29.2592 C   0  0  0  0  0  0  0  0  0  0  0  0
   -0.5194   -3.0440   29.6134 C   0  0  0  0  0  0  0  0  0  0  0  0
   -0.8901   -4.2620   29.2192 C   0  0  0  0  0  0  0  0  0  0  0  0
   -2.8038   -3.3478   28.4938 C   0  0  0  0  0  0  0  0  0  0  0  0
   -2.0696   -4.3863   28.6685 C   0  0  0  0  0  0  0  0  0  0  0  0
  -11.6239    3.7727   25.6719 C   0  0  2  0  0  0  0  0  0  0  0  0
  -11.9985    3.9712   24.6872 C   0  0  0  0  0  0  0  0  0  0  0  0
  -11.1107    4.4389   23.5134 C   0  0  0  0  0  0  0  0  0  0  0  0
  -11.5231    4.6883   22.2054 C   0  0  0  0  0  0  0  0  0  0  0  0
  -12.8447    4.5135   21.9561 C   0  0  0  0  0  0  0  0  0  0  0  0
  -13.7788    4.1732   22.8977 C   0  0  0  0  0  0  0  0  0  0  0  0
  -13.3949    3.9648   24.1583 C   0  0  0  0  0  0  0  0  0  0  0  0
  -12.5881    3.5982   26.7235 N   0  0  0  0  0  0  0  0  0  0  0  0
  -12.8203    3.8729   27.6614 C   0  0  0  0  0  0  0  0  0  0  0  0
  -12.0134    3.7734   28.7067 C   0  0  0  0  0  0  0  0  0  0  0  0
  -13.9123    4.6452   27.9670 O   0  0  0  0  0  0  0  0  0  0  0  0
  -12.2729    2.5556   29.6901 C   0  0  0  0  0  0  0  0  0  0  0  0
  -12.4410    1.3601   28.8537 C   0  0  0  0  0  0  0  0  0  0  0  0
  -13.3531    0.4132   29.4268 C   0  0  0  0  0  0  0  0  0  0  0  0
  -13.9661    0.6672   30.6143 C   0  0  0  0  0  0  0  0  0  0  0  0
  -13.8630    1.9186   31.2647 C   0  0  0  0  0  0  0  0  0  0  0  0
  3  4  1  0
  2  8  1  0
  8  9  1  0
  8 13  2  0
  4 17  2  0
  4 18  1  0
 16 19  1  0
  6 25  1  0
 25 32  1  1
 32 33  1  0
 33 34  1  0
 33 35  2  0
 34 36  1  0
 36 37  1  0
 37 38  2  3
 38 39  1  0
 39 40  2  0
 25 26  1  0
  9 10  1  0
 10 11  2  0
 11 15  1  0
 15 16  2  0
 16 14  1  0
 14 12  2  0
 12 10  1  0
 26 27  2  0
 27 28  1  0
 28 29  2  0
 29 30  1  0
 30 31  2  0
 31 26  1  0
  1  2  2  0
  2  5  1  0
  5  6  2  0
  6  7  1  0
  7  3  2  0
  3  1  1  0
 19 20  2  0
 20 21  1  0
 21 22  2  0
 22 24  1  0
 24 23  2  0
 23 19  1  0
M  END
$$$$
