No_1033-complexes_sdf/6BKW-FPZ/2024-09-17-14-21-01/
     RDKit          3D

 21 22  0  0  0  0  0  0  0  0999 V2000
   -7.9040    3.9820   27.1177 C   0  0  0  0  0  0  0  0  0  0  0  0
   -8.2057    2.8231   26.8733 C   0  0  0  0  0  0  0  0  0  0  0  0
   -7.4766    1.7477   27.4593 C   0  0  0  0  0  0  0  0  0  0  0  0
   -8.7468    5.1251   26.6967 C   0  0  0  0  0  0  0  0  0  0  0  0
   -9.7234    4.8589   25.8202 C   0  0  0  0  0  0  0  0  0  0  0  0
   -9.9711    3.5858   25.4266 C   0  0  0  0  0  0  0  0  0  0  0  0
   -9.2266    2.4957   25.9600 C   0  0  0  0  0  0  0  0  0  0  0  0
   -6.1241    1.9216   27.8574 C   0  0  0  0  0  0  0  0  0  0  0  0
   -5.4248    0.7985   28.3602 C   0  0  0  0  0  0  0  0  0  0  0  0
   -5.9324   -0.4517   28.3727 C   0  0  0  0  0  0  0  0  0  0  0  0
   -7.8680    0.3890   27.4333 C   0  0  0  0  0  0  0  0  0  0  0  0
   -7.2076   -0.6217   27.9501 C   0  0  0  0  0  0  0  0  0  0  0  0
   -8.4156    6.5133   27.1052 C   0  0  0  0  0  0  0  0  0  0  0  0
   -8.0286    6.8398   28.2628 N   0  0  0  0  0  0  0  0  0  0  0  0
   -8.4247    7.5021   26.1883 N   0  0  0  0  0  0  0  0  0  0  0  0
   -3.9664    1.1017   28.8121 C   0  0  0  0  0  0  0  0  0  0  0  0
   -3.2114    0.2935   28.5683 O   0  0  0  0  0  0  0  0  0  0  0  0
   -7.8284   -1.9469   28.0147 C   0  0  0  0  0  0  0  0  0  0  0  0
   -7.2954   -2.8632   28.5862 C   0  0  0  0  0  0  0  0  0  0  0  0
   -6.0298   -2.6457   29.2492 C   0  0  0  0  0  0  0  0  0  0  0  0
   -5.2823   -1.5024   29.1384 C   0  0  0  0  0  0  0  0  0  0  0  0
  2  3  1  0
  4 13  1  0
 13 14  2  0
 13 15  1  0
  9 16  1  0
 16 17  2  0
 12 18  1  0
 18 19  2  3
 19 20  1  0
 20 21  2  0
  3  8  2  0
  8  9  1  0
  9 10  2  0
 10 12  1  0
 12 11  2  0
 11  3  1  0
  1  2  2  0
  2  7  1  0
  7  6  2  0
  6  5  1  0
  5  4  2  0
  4  1  1  0
M  END
$$$$
