No_1797-complexes_sdf/6BKW-FPZ/2024-09-17-14-21-01/
     RDKit          3D

 23 25  0  0  0  0  0  0  0  0999 V2000
   -7.9040    3.9820   27.1177 C   0  0  0  0  0  0  0  0  0  0  0  0
   -9.0711    4.3164   27.0630 C   0  0  0  0  0  0  0  0  0  0  0  0
   -9.5294    5.4517   27.7215 C   0  0  0  0  0  0  0  0  0  0  0  0
   -6.9328    4.7309   27.8881 C   0  0  0  0  0  0  0  0  0  0  0  0
   -7.3666    5.8455   28.5488 C   0  0  0  0  0  0  0  0  0  0  0  0
   -8.6669    6.2428   28.4199 C   0  0  0  0  0  0  0  0  0  0  0  0
  -10.0479    3.5083   26.2510 C   0  0  0  0  0  0  0  0  0  0  0  0
   -9.7487    3.3856   24.9113 C   0  0  0  0  0  0  0  0  0  0  0  0
  -10.4599    2.6104   24.0012 C   0  0  0  0  0  0  0  0  0  0  0  0
  -11.6228    2.0465   24.4715 C   0  0  0  0  0  0  0  0  0  0  0  0
  -11.1927    2.9222   26.6600 C   0  0  0  0  0  0  0  0  0  0  0  0
  -11.5569    3.0312   28.1465 C   0  0  0  0  0  0  0  0  0  0  0  0
  -12.0070    2.1859   25.8278 C   0  0  0  0  0  0  0  0  0  0  0  0
  -12.7273    3.5846   28.5378 C   0  0  0  0  0  0  0  0  0  0  0  0
  -13.3118    3.2534   29.7914 C   0  0  0  0  0  0  0  0  0  0  0  0
  -14.4419    3.9138   30.2605 C   0  0  0  0  0  0  0  0  0  0  0  0
  -15.0644    4.8367   29.4071 C   0  0  0  0  0  0  0  0  0  0  0  0
  -14.5289    5.1523   28.1677 C   0  0  0  0  0  0  0  0  0  0  0  0
  -13.3423    4.5599   27.7431 C   0  0  0  0  0  0  0  0  0  0  0  0
  -10.9887    2.0477   28.8816 O   0  0  0  0  0  0  0  0  0  0  0  0
  -12.4730    1.2905   23.5831 C   0  0  0  0  0  0  0  0  0  0  0  0
  -13.4482    0.6098   23.8451 C   0  0  0  0  0  0  0  0  0  0  0  0
  -14.2803   -0.0831   22.9278 C   0  0  0  0  0  0  0  0  0  0  0  0
  2  7  1  0
 11 12  1  0
 12 14  1  0
 12 20  2  0
 10 21  1  0
 21 22  2  3
 22 23  1  0
 14 15  2  0
 15 16  1  0
 16 17  2  0
 17 18  1  0
 18 19  2  0
 19 14  1  0
  1  2  2  0
  2  3  1  0
  3  6  2  0
  6  5  1  0
  5  4  2  0
  4  1  1  0
  7  8  2  0
  8  9  1  0
  9 10  2  0
 10 13  1  0
 13 11  2  0
 11  7  1  0
M  END
$$$$
