No_1876-complexes_sdf/6BKW-FPZ/2024-09-17-14-21-01/
     RDKit          3D

 22 23  0  0  0  0  0  0  0  0999 V2000
   -7.9040    3.9820   27.1177 C   0  0  0  0  0  0  0  0  0  0  0  0
   -8.2057    2.8231   26.8733 C   0  0  0  0  0  0  0  0  0  0  0  0
   -8.7695    5.0740   26.7916 C   0  0  0  0  0  0  0  0  0  0  0  0
   -9.9618    4.7598   26.1630 C   0  0  0  0  0  0  0  0  0  0  0  0
   -9.4200    2.4524   26.2849 C   0  0  0  0  0  0  0  0  0  0  0  0
  -10.2590    3.4815   25.9250 C   0  0  0  0  0  0  0  0  0  0  0  0
   -8.3840    6.4693   27.0829 C   0  0  0  0  0  0  0  0  0  0  0  0
   -7.7453    6.8270   28.1334 N   0  0  0  0  0  0  0  0  0  0  0  0
   -8.8431    7.4339   26.3634 O   0  0  0  0  0  0  0  0  0  0  0  0
   -7.1112    1.7790   27.3433 C   0  0  0  0  0  0  0  0  0  0  0  0
   -5.7692    2.2679   28.0672 Cl  0  0  0  0  0  0  0  0  0  0  0  0
   -7.3384    0.3731   27.1038 C   0  0  0  0  0  0  0  0  0  0  0  0
   -6.5528   -0.2176   26.2995 C   0  0  0  0  0  0  0  0  0  0  0  0
   -6.7304   -1.6371   25.9981 C   0  0  0  0  0  0  0  0  0  0  0  0
   -7.8459   -2.2351   26.5705 C   0  0  0  0  0  0  0  0  0  0  0  0
   -8.6695   -1.5491   27.4505 C   0  0  0  0  0  0  0  0  0  0  0  0
   -8.4744   -0.1917   27.7362 C   0  0  0  0  0  0  0  0  0  0  0  0
   -9.9872   -2.3861   28.2180 Cl  0  0  0  0  0  0  0  0  0  0  0  0
  -11.4910    3.1760   25.1469 C   0  0  0  0  0  0  0  0  0  0  0  0
  -11.9389    4.1280   24.5493 F   0  0  0  0  0  0  0  0  0  0  0  0
  -12.4388    2.7918   26.0636 F   0  0  0  0  0  0  0  0  0  0  0  0
  -11.2860    2.1804   24.2837 F   0  0  0  0  0  0  0  0  0  0  0  0
  3  7  1  0
  7  8  1  0
  7  9  2  0
  2 10  1  0
 10 11  1  0
 10 12  1  0
 16 18  1  0
  6 19  1  0
 19 20  1  0
 19 21  1  0
 19 22  1  0
 12 13  2  0
 13 14  1  0
 14 15  2  0
 15 16  1  0
 16 17  2  0
 17 12  1  0
  1  2  2  0
  2  5  1  0
  5  6  2  0
  6  4  1  0
  4  3  2  0
  3  1  1  0
M  END
$$$$
