No_1008-complexes_sdf/6BKW-FPZ/2024-09-17-14-21-01/
     RDKit          3D

 20 22  0  0  0  0  0  0  0  0999 V2000
   -7.9040    3.9820   27.1177 C   0  0  0  0  0  0  0  0  0  0  0  0
   -8.2057    2.8231   26.8733 C   0  0  0  0  0  0  0  0  0  0  0  0
   -7.4766    1.7477   27.4593 C   0  0  0  0  0  0  0  0  0  0  0  0
   -8.7468    5.1251   26.6967 C   0  0  0  0  0  0  0  0  0  0  0  0
   -9.7234    4.8589   25.8202 C   0  0  0  0  0  0  0  0  0  0  0  0
   -9.9711    3.5858   25.4266 C   0  0  0  0  0  0  0  0  0  0  0  0
   -9.2266    2.4957   25.9600 C   0  0  0  0  0  0  0  0  0  0  0  0
   -6.1241    1.9216   27.8574 C   0  0  0  0  0  0  0  0  0  0  0  0
   -5.3476    0.8215   28.3513 C   0  0  0  0  0  0  0  0  0  0  0  0
   -5.8615   -0.4216   28.3746 C   0  0  0  0  0  0  0  0  0  0  0  0
   -7.8873    0.3796   27.4328 C   0  0  0  0  0  0  0  0  0  0  0  0
   -7.1775   -0.6189   27.9519 C   0  0  0  0  0  0  0  0  0  0  0  0
   -8.6509    6.5199   27.0954 C   0  0  0  0  0  0  0  0  0  0  0  0
   -9.0491    6.7587   28.2256 F   0  0  0  0  0  0  0  0  0  0  0  0
   -7.2217    6.8344   27.3191 F   0  0  0  0  0  0  0  0  0  0  0  0
   -8.9775    7.4217   26.1704 F   0  0  0  0  0  0  0  0  0  0  0  0
   -5.0602   -1.5138   28.9411 C   0  0  0  0  0  0  0  0  0  0  0  0
   -3.7927   -1.3055   29.2623 C   0  0  0  0  0  0  0  0  0  0  0  0
   -3.2513    0.0645   29.1325 C   0  0  0  0  0  0  0  0  0  0  0  0
   -3.9677    1.0784   28.7222 C   0  0  0  0  0  0  0  0  0  0  0  0
  2  3  1  0
  4 13  1  0
 13 14  1  0
 13 15  1  0
 13 16  1  0
  3  8  2  0
  8  9  1  0
 10 12  1  0
 12 11  2  0
 11  3  1  0
  1  2  2  0
  2  7  1  0
  7  6  2  0
  6  5  1  0
  5  4  2  0
  4  1  1  0
  9 10  2  0
 10 17  1  0
 17 18  2  0
 18 19  1  0
 19 20  2  0
 20  9  1  0
M  END
$$$$
