No_1007-complexes_sdf/6BKW-FPZ/2024-09-17-14-21-01/
     RDKit          3D

 20 22  0  0  0  0  0  0  0  0999 V2000
   -7.7129    4.2099   27.0854 C   0  0  0  0  0  0  0  0  0  0  0  0
   -7.7814    5.1722   27.8972 C   0  0  0  0  0  0  0  0  0  0  0  0
   -8.8255    3.2789   27.1191 C   0  0  0  0  0  0  0  0  0  0  0  0
   -9.9209    3.4734   27.9101 C   0  0  0  0  0  0  0  0  0  0  0  0
   -9.9736    4.7085   28.6831 C   0  0  0  0  0  0  0  0  0  0  0  0
   -8.8840    5.5441   28.6612 C   0  0  0  0  0  0  0  0  0  0  0  0
   -8.7059    2.0159   26.3410 C   0  0  0  0  0  0  0  0  0  0  0  0
   -7.9268    0.9388   26.6910 C   0  0  0  0  0  0  0  0  0  0  0  0
   -7.8299   -0.1995   26.0013 C   0  0  0  0  0  0  0  0  0  0  0  0
   -9.4492    1.9066   25.1755 C   0  0  0  0  0  0  0  0  0  0  0  0
   -9.3693    0.7962   24.3491 C   0  0  0  0  0  0  0  0  0  0  0  0
   -8.5423   -0.2458   24.7893 C   0  0  0  0  0  0  0  0  0  0  0  0
  -11.0608    2.6004   27.9663 C   0  0  0  0  0  0  0  0  0  0  0  0
  -12.2692    2.9002   27.3246 C   0  0  0  0  0  0  0  0  0  0  0  0
  -12.4306    3.8280   26.7278 C   0  0  0  0  0  0  0  0  0  0  0  0
  -13.2492    4.1517   25.9907 C   0  0  0  0  0  0  0  0  0  0  0  0
  -14.3477    3.3309   25.7554 C   0  0  0  0  0  0  0  0  0  0  0  0
  -13.3608    2.0381   27.3837 C   0  0  0  0  0  0  0  0  0  0  0  0
  -14.4214    2.2235   26.5439 C   0  0  0  0  0  0  0  0  0  0  0  0
  -10.8294    1.5010   28.6640 O   0  0  0  0  0  0  0  0  0  0  0  0
  3  7  1  0
  4 13  1  0
 13 14  1  0
 13 20  2  0
  1  2  2  0
  2  6  1  0
  6  5  2  0
  5  4  1  0
  4  3  2  0
  3  1  1  0
 14 15  2  0
 15 16  1  0
 16 17  2  0
 17 19  1  0
 19 18  2  0
 18 14  1  0
  7  8  2  0
  8  9  1  0
  9 12  2  0
 12 11  1  0
 11 10  2  0
 10  7  1  0
M  END
$$$$
