No_1854-complexes_sdf/6BKW-FPZ/2024-09-17-14-21-01/
     RDKit          3D

 34 36  0  0  0  0  0  0  0  0999 V2000
   -7.2496    3.8871   27.4508 C   0  0  0  0  0  0  0  0  0  0  0  0
   -7.6161    2.7143   27.1523 C   0  0  0  0  0  0  0  0  0  0  0  0
   -8.6212    2.2239   26.4073 C   0  0  0  0  0  0  0  0  0  0  0  0
   -8.2540    4.9237   27.1711 C   0  0  0  0  0  0  0  0  0  0  0  0
   -9.3729    4.5806   26.4432 C   0  0  0  0  0  0  0  0  0  0  0  0
   -9.5830    3.2968   26.1025 C   0  0  0  0  0  0  0  0  0  0  0  0
   -7.9412    6.1792   27.5109 F   0  0  0  0  0  0  0  0  0  0  0  0
   -8.8843    0.8875   26.0679 C   0  0  0  0  0  0  0  0  0  0  0  0
   -9.1647    0.5611   24.9390 C   0  0  0  0  0  0  0  0  0  0  0  0
   -9.3699   -0.8200   24.5111 C   0  0  0  0  0  0  0  0  0  0  0  0
   -9.2059   -1.7886   25.4395 C   0  0  0  0  0  0  0  0  0  0  0  0
   -8.6450   -0.1903   27.0361 C   0  0  0  0  0  0  0  0  0  0  0  0
   -8.7560   -1.3138   26.7723 C   0  0  0  0  0  0  0  0  0  0  0  0
  -10.9636    2.8248   25.2459 Cl  0  0  0  0  0  0  0  0  0  0  0  0
   -6.2335    4.2390   28.2305 F   0  0  0  0  0  0  0  0  0  0  0  0
   -9.4290   -3.4073   25.0414 Cl  0  0  0  0  0  0  0  0  0  0  0  0
   -9.7474   -1.1535   23.1166 C   0  0  0  0  0  0  0  0  0  0  0  0
   -9.6182   -0.1780   22.1746 C   0  0  0  0  0  0  0  0  0  0  0  0
  -10.0285   -0.4746   20.8022 C   0  0  0  0  0  0  0  0  0  0  0  0
  -10.2931   -1.7871   20.4736 C   0  0  0  0  0  0  0  0  0  0  0  0
  -10.3176   -2.7373   21.4640 C   0  0  0  0  0  0  0  0  0  0  0  0
  -10.0279   -2.4242   22.7258 C   0  0  0  0  0  0  0  0  0  0  0  0
  -10.6137   -1.8291   19.0170 C   0  0  0  0  0  0  0  0  0  0  0  0
   -9.6791   -2.1922   18.3023 O   0  0  0  0  0  0  0  0  0  0  0  0
  -11.8129   -1.7839   18.6417 O   0  0  0  0  0  0  0  0  0  0  0  0
   -8.5509   -2.6224   27.9698 Cl  0  0  0  0  0  0  0  0  0  0  0  0
  -10.7131   -4.2951   20.9092 Cl  0  0  0  0  0  0  0  0  0  0  0  0
  -12.1984   -2.0131   17.3790 C   0  0  0  0  0  0  0  0  0  0  0  0
  -13.5258   -2.2393   17.1287 C   0  0  0  0  0  0  0  0  0  0  0  0
  -14.3266   -2.2248   18.0413 F   0  0  0  0  0  0  0  0  0  0  0  0
  -13.8844   -3.1088   16.1392 F   0  0  0  0  0  0  0  0  0  0  0  0
  -13.9522   -1.0148   16.4419 F   0  0  0  0  0  0  0  0  0  0  0  0
  -11.4185   -3.0964   16.9871 F   0  0  0  0  0  0  0  0  0  0  0  0
  -11.5671   -0.9661   16.5174 F   0  0  0  0  0  0  0  0  0  0  0  0
  4  7  1  0
  3  8  1  0
  6 14  1  0
  1 15  1  0
 11 16  1  0
 10 17  1  0
 20 23  1  0
 23 24  2  0
 23 25  1  0
 13 26  1  0
 21 27  1  0
 25 28  1  0
 28 29  1  0
 29 30  1  0
 29 31  1  0
 29 32  1  0
 28 33  1  0
 28 34  1  0
 17 18  2  0
 18 19  1  0
 19 20  2  0
 20 21  1  0
 21 22  2  0
 22 17  1  0
  1  2  2  0
  2  3  1  0
  3  6  2  0
  6  5  1  0
  5  4  2  0
  4  1  1  0
  8  9  2  0
  9 10  1  0
 10 11  2  0
 11 13  1  0
 13 12  2  0
 12  8  1  0
M  END
$$$$
