No_1103-complexes_sdf/6BKW-FPZ/2024-09-17-14-21-01/
     RDKit          3D

 22 24  0  0  0  0  0  0  0  0999 V2000
   -7.9040    3.9820   27.1177 C   0  0  0  0  0  0  0  0  0  0  0  0
   -8.2057    2.8231   26.8733 C   0  0  0  0  0  0  0  0  0  0  0  0
   -8.7695    5.0740   26.7916 C   0  0  0  0  0  0  0  0  0  0  0  0
   -9.9618    4.7598   26.1630 C   0  0  0  0  0  0  0  0  0  0  0  0
   -9.4200    2.4524   26.2849 C   0  0  0  0  0  0  0  0  0  0  0  0
  -10.2590    3.4815   25.9250 C   0  0  0  0  0  0  0  0  0  0  0  0
   -8.6241    6.4203   27.0623 N   0  0  0  0  0  0  0  0  0  0  0  0
   -8.0371    7.3310   26.2478 C   0  0  0  0  0  0  0  0  0  0  0  0
   -7.3266    1.7543   27.2689 N   0  0  0  0  0  0  0  0  0  0  0  0
   -7.5592    0.4152   27.2097 C   0  0  0  0  0  0  0  0  0  0  0  0
   -6.5241   -0.4005   27.7011 C   0  0  0  0  0  0  0  0  0  0  0  0
   -5.4638    0.4593   28.1426 C   0  0  0  0  0  0  0  0  0  0  0  0
   -6.0024    1.9055   27.8481 C   0  0  0  0  0  0  0  0  0  0  0  0
   -4.1943    0.2562   28.6680 C   0  0  0  0  0  0  0  0  0  0  0  0
   -4.0525   -0.6652   29.6271 C   0  0  0  0  0  0  0  0  0  0  0  0
   -4.5529   -0.7639   30.5888 C   0  0  0  0  0  0  0  0  0  0  0  0
   -4.2750   -1.7446   31.7006 C   0  0  0  0  0  0  0  0  0  0  0  0
   -3.1642   -2.4958   31.4989 C   0  0  0  0  0  0  0  0  0  0  0  0
   -2.7296   -1.4183   29.4296 C   0  0  0  0  0  0  0  0  0  0  0  0
   -2.3569   -2.3355   30.3764 C   0  0  0  0  0  0  0  0  0  0  0  0
   -3.2215    1.0150   28.1079 O   0  0  0  0  0  0  0  0  0  0  0  0
   -7.6666    8.4847   27.2707 C   0  0  0  0  0  0  0  0  0  0  0  0
  3  7  1  0
  7  8  1  0
  2  9  1  0
  9 10  1  0
 10 11  2  0
 11 12  1  0
  9 13  1  0
 12 13  2  0
 12 14  1  0
 14 15  1  0
 14 21  2  0
  8 22  1  0
 15 16  2  0
 16 17  1  0
 17 18  2  0
 18 20  1  0
 20 19  2  0
 19 15  1  0
  1  2  2  0
  2  5  1  0
  5  6  2  0
  6  4  1  0
  4  3  2  0
  3  1  1  0
M  END
$$$$
