No_1663-complexes_sdf/6BKW-FPZ/2024-09-17-14-21-01/
     RDKit          3D

 20 22  0  0  0  0  0  0  0  0999 V2000
   -7.7129    4.2099   27.0854 C   0  0  0  0  0  0  0  0  0  0  0  0
   -7.7814    5.1722   27.8972 C   0  0  0  0  0  0  0  0  0  0  0  0
   -8.8255    3.2789   27.1191 C   0  0  0  0  0  0  0  0  0  0  0  0
   -9.9209    3.4734   27.9101 C   0  0  0  0  0  0  0  0  0  0  0  0
   -9.9736    4.7085   28.6831 C   0  0  0  0  0  0  0  0  0  0  0  0
   -8.8840    5.5441   28.6612 C   0  0  0  0  0  0  0  0  0  0  0  0
   -8.7102    2.0171   26.3293 C   0  0  0  0  0  0  0  0  0  0  0  0
   -9.2831    1.9661   25.0865 C   0  0  0  0  0  0  0  0  0  0  0  0
   -9.8840    3.1000   24.5392 C   0  0  0  0  0  0  0  0  0  0  0  0
  -10.4242    3.1501   23.2538 C   0  0  0  0  0  0  0  0  0  0  0  0
  -10.2359    2.0059   22.4641 C   0  0  0  0  0  0  0  0  0  0  0  0
   -9.6154    0.8584   22.9583 C   0  0  0  0  0  0  0  0  0  0  0  0
   -9.1021    0.8732   24.2456 C   0  0  0  0  0  0  0  0  0  0  0  0
   -8.0226    0.9045   26.9109 C   0  0  0  0  0  0  0  0  0  0  0  0
   -8.0242   -0.0781   27.3179 C   0  0  0  0  0  0  0  0  0  0  0  0
   -9.2142   -0.9473   27.4866 C   0  0  0  0  0  0  0  0  0  0  0  0
   -9.2292   -2.1816   28.1615 C   0  0  0  0  0  0  0  0  0  0  0  0
   -8.0069   -2.5866   28.7328 C   0  0  0  0  0  0  0  0  0  0  0  0
   -6.8434   -1.9157   28.6463 C   0  0  0  0  0  0  0  0  0  0  0  0
   -6.7764   -0.6605   28.0008 C   0  0  0  0  0  0  0  0  0  0  0  0
  3  7  1  0
  7  8  1  0
  7 14  1  0
 14 15  1  0
 15 16  2  0
 16 17  1  0
 17 18  2  0
 18 19  1  0
 19 20  2  0
 20 15  1  0
  1  2  2  0
  2  6  1  0
  6  5  2  0
  5  4  1  0
  4  3  2  0
  3  1  1  0
  8  9  2  0
  9 10  1  0
 10 11  2  0
 11 12  1  0
 12 13  2  0
 13  8  1  0
M  END
$$$$
