No_1554-complexes_sdf/6BKW-FPZ/2024-09-17-14-21-01/
     RDKit          3D

 23 25  0  0  0  0  0  0  0  0999 V2000
   -7.9040    3.9820   27.1177 C   0  0  0  0  0  0  0  0  0  0  0  0
   -8.2057    2.8231   26.8733 C   0  0  0  0  0  0  0  0  0  0  0  0
   -9.2962    2.4021   26.1155 C   0  0  0  0  0  0  0  0  0  0  0  0
   -8.7358    5.0662   26.5917 C   0  0  0  0  0  0  0  0  0  0  0  0
   -9.7618    4.7023   25.7546 C   0  0  0  0  0  0  0  0  0  0  0  0
  -10.0066    3.4105   25.4922 C   0  0  0  0  0  0  0  0  0  0  0  0
   -8.1995    6.4306   26.9121 C   0  0  0  0  0  0  0  0  0  0  0  0
   -8.9575    7.5310   26.5983 N   0  0  0  0  0  0  0  0  0  0  0  0
   -7.2296    6.4801   27.7369 O   0  0  0  0  0  0  0  0  0  0  0  0
   -7.3634    1.6382   27.4584 C   0  0  0  0  0  0  0  0  0  0  0  0
   -7.7109    0.3154   27.3621 C   0  0  0  0  0  0  0  0  0  0  0  0
   -6.8293   -0.6275   27.7732 C   0  0  0  0  0  0  0  0  0  0  0  0
   -5.5651   -0.2545   28.2817 C   0  0  0  0  0  0  0  0  0  0  0  0
   -5.1669    1.0969   28.2473 C   0  0  0  0  0  0  0  0  0  0  0  0
   -5.9709    2.0172   27.8014 C   0  0  0  0  0  0  0  0  0  0  0  0
   -4.7387   -1.2178   28.7585 F   0  0  0  0  0  0  0  0  0  0  0  0
  -11.1162    3.0949   24.5774 C   0  0  0  0  0  0  0  0  0  0  0  0
  -11.1846    3.6745   23.4058 C   0  0  0  0  0  0  0  0  0  0  0  0
  -10.1211    4.6293   22.9753 C   0  0  0  0  0  0  0  0  0  0  0  0
  -12.4308    3.7293   22.6609 C   0  0  0  0  0  0  0  0  0  0  0  0
  -13.4767    3.8394   23.2422 C   0  0  0  0  0  0  0  0  0  0  0  0
  -13.5481    4.0078   24.6906 C   0  0  0  0  0  0  0  0  0  0  0  0
  -12.4695    3.2353   25.3831 C   0  0  0  0  0  0  0  0  0  0  0  0
  4  7  1  0
  7  8  1  0
  7  9  2  0
  2 10  1  0
 13 16  1  0
  6 17  1  0
 18 19  1  0
  1  2  2  0
  2  3  1  0
  3  6  2  0
  6  5  1  0
  5  4  2  0
  4  1  1  0
 10 11  2  0
 11 12  1  0
 12 13  2  0
 13 14  1  0
 14 15  2  0
 15 10  1  0
 17 18  2  0
 18 20  1  0
 20 21  2  0
 21 22  1  0
 22 23  2  0
 23 17  1  0
M  END
$$$$
