No_1566-complexes_sdf/6BKW-FPZ/2024-09-17-14-21-01/
     RDKit          3D

 34 37  0  0  0  0  0  0  0  0999 V2000
   -7.9040    3.9820   27.1177 C   0  0  0  0  0  0  0  0  0  0  0  0
   -9.0711    4.3164   27.0630 C   0  0  1  0  0  0  0  0  0  0  0  0
   -9.5294    5.4517   27.7215 C   0  0  0  0  0  0  0  0  0  0  0  0
   -9.5325    4.2881   25.5671 C   0  0  0  0  0  0  0  0  0  0  0  0
   -7.5841    2.4934   27.0311 C   0  0  1  0  0  0  0  0  0  0  0  0
   -8.6050    1.6981   26.6246 C   0  0  0  0  0  0  0  0  0  0  0  0
   -9.2970    1.8330   25.4642 C   0  0  0  0  0  0  0  0  0  0  0  0
  -10.0963    2.9786   25.2115 C   0  0  2  0  0  0  0  0  0  0  0  0
   -6.1868    2.1279   27.1972 C   0  0  0  0  0  0  0  0  0  0  0  0
   -5.3796    2.9103   27.6466 F   0  0  0  0  0  0  0  0  0  0  0  0
   -5.9143    0.8263   27.2201 N   0  0  0  0  0  0  0  0  0  0  0  0
   -4.6219    0.3420   27.5792 C   0  0  0  0  0  0  0  0  0  0  0  0
   -4.1773    0.5642   28.7885 C   0  0  0  0  0  0  0  0  0  0  0  0
   -4.0898   -0.5941   29.7377 C   0  0  0  0  0  0  0  0  0  0  0  0
   -4.4710   -1.5405   29.5807 C   0  0  0  0  0  0  0  0  0  0  0  0
   -4.4343   -2.6770   30.5600 C   0  0  0  0  0  0  0  0  0  0  0  0
   -3.7406   -2.4087   31.7686 C   0  0  0  0  0  0  0  0  0  0  0  0
   -3.1761   -1.1237   31.9886 C   0  0  0  0  0  0  0  0  0  0  0  0
   -3.3201   -0.1479   31.0500 C   0  0  0  0  0  0  0  0  0  0  0  0
   -2.4197   -0.8628   33.2517 C   0  0  0  0  0  0  0  0  0  0  0  0
   -1.9018    0.0265   33.4848 O   0  0  0  0  0  0  0  0  0  0  0  0
   -2.4710   -1.8807   34.0992 O   0  0  0  0  0  0  0  0  0  0  0  0
  -10.6143    3.1018   23.7590 C   0  0  0  0  0  0  0  0  0  0  0  0
  -11.8467    2.8091   23.6807 C   0  0  0  0  0  0  0  0  0  0  0  0
  -12.4921    3.0663   22.5436 C   0  0  0  0  0  0  0  0  0  0  0  0
  -11.7750    3.5252   21.3656 C   0  0  0  0  0  0  0  0  0  0  0  0
  -10.4555    3.9158   21.5275 C   0  0  0  0  0  0  0  0  0  0  0  0
   -9.8870    3.7489   22.7829 C   0  0  0  0  0  0  0  0  0  0  0  0
  -11.3823    2.8875   26.1308 C   0  0  0  0  0  0  0  0  0  0  0  0
  -12.4889    2.6503   25.1022 C   0  0  2  0  0  0  0  0  0  0  0  0
  -12.9812    1.2417   25.2292 C   0  0  0  0  0  0  0  0  0  0  0  0
  -13.5787    3.7139   25.4078 C   0  0  0  0  0  0  0  0  0  0  0  0
  -12.3682    0.3929   25.5698 C   0  0  0  0  0  0  0  0  0  0  0  0
  -12.8081   -0.9846   25.6755 C   0  0  0  0  0  0  0  0  0  0  0  0
  1  2  1  0
  2  3  1  6
  2  4  1  0
  5  1  1  6
  5  6  1  0
  6  7  1  0
  8  4  1  1
  7  8  1  0
  5  9  1  0
  9 10  1  0
  9 11  2  3
 11 12  1  0
 12 13  1  0
 13 14  1  0
 18 20  1  0
 20 21  2  0
 20 22  1  0
  8 23  1  0
  8 29  1  0
 24 30  1  0
 29 30  1  0
 30 31  1  0
 30 32  1  1
 31 33  2  3
 33 34  1  0
 14 15  2  0
 15 16  1  0
 16 17  2  0
 17 18  1  0
 18 19  2  0
 19 14  1  0
 23 24  1  0
 24 25  2  0
 25 26  1  0
 26 27  2  0
 27 28  1  0
 28 23  2  0
M  END
$$$$
