No_1195-complexes_sdf/6BKW-FPZ/2024-09-17-14-21-01/
     RDKit          3D

 11 11  0  0  0  0  0  0  0  0999 V2000
   -7.2496    3.8871   27.4508 C   0  0  0  0  0  0  0  0  0  0  0  0
   -7.6161    2.7143   27.1523 C   0  0  0  0  0  0  0  0  0  0  0  0
   -8.8302    2.4659   26.5056 C   0  0  0  0  0  0  0  0  0  0  0  0
   -6.1096    4.2818   28.2555 C   0  0  0  0  0  0  0  0  0  0  0  0
   -9.6582    3.4917   26.1916 C   0  0  0  0  0  0  0  0  0  0  0  0
   -9.2732    4.7986   26.5150 C   0  0  0  0  0  0  0  0  0  0  0  0
   -8.1018    5.0187   27.2056 C   0  0  0  0  0  0  0  0  0  0  0  0
  -10.9034    3.3499   25.4054 C   0  0  0  0  0  0  0  0  0  0  0  0
  -10.9708    3.5775   24.0659 C   0  0  0  0  0  0  0  0  0  0  0  0
   -9.7638    4.0169   23.3449 C   0  0  0  0  0  0  0  0  0  0  0  0
   -9.8965    4.3042   21.9617 C   0  0  0  0  0  0  0  0  0  0  0  0
  1  4  1  0
  5  8  1  0
  8  9  2  3
  9 10  1  0
 10 11  2  0
  1  2  2  0
  2  3  1  0
  3  5  2  0
  5  6  1  0
  6  7  2  0
  7  1  1  0
M  END
$$$$
