No_1095-complexes_sdf/6BKW-FPZ/2024-09-17-14-21-01/
     RDKit          3D

 23 26  0  0  0  0  0  0  0  0999 V2000
   -7.2496    3.8871   27.4508 C   0  0  0  0  0  0  0  0  0  0  0  0
   -7.6161    2.7143   27.1523 C   0  0  0  0  0  0  0  0  0  0  0  0
   -8.8302    2.4659   26.5056 C   0  0  0  0  0  0  0  0  0  0  0  0
   -8.1584    5.0090   27.3234 C   0  0  0  0  0  0  0  0  0  0  0  0
   -9.2382    4.8823   26.8337 C   0  0  0  0  0  0  0  0  0  0  0  0
   -9.6533    3.6268   26.3156 C   0  0  0  0  0  0  0  0  0  0  0  0
   -6.8021    1.6179   27.3417 N   0  0  0  0  0  0  0  0  0  0  0  0
   -7.0479    0.3424   27.0263 C   0  0  0  0  0  0  0  0  0  0  0  0
   -8.3529    0.1316   26.4934 C   0  0  0  0  0  0  0  0  0  0  0  0
   -9.2217    1.1659   26.1911 C   0  0  0  0  0  0  0  0  0  0  0  0
   -7.5194    6.5697   27.9671 Cl  0  0  0  0  0  0  0  0  0  0  0  0
  -10.4750    0.9153   25.5317 C   0  0  1  0  0  0  0  0  0  0  0  0
  -11.6090    1.0768   26.1715 C   0  0  0  0  0  0  0  0  0  0  0  0
  -10.4704    0.7175   24.1412 C   0  0  0  0  0  0  0  0  0  0  0  0
   -9.5698    0.4046   23.4049 C   0  0  0  0  0  0  0  0  0  0  0  0
   -9.3634    0.3727   22.1984 C   0  0  0  0  0  0  0  0  0  0  0  0
  -10.4754    0.7253   21.3540 C   0  0  0  0  0  0  0  0  0  0  0  0
  -11.6019    1.1119   22.0278 C   0  0  0  0  0  0  0  0  0  0  0  0
  -11.6099    1.2177   23.3482 C   0  0  0  0  0  0  0  0  0  0  0  0
  -12.7767    0.9242   25.9856 C   0  0  0  0  0  0  0  0  0  0  0  0
  -13.7123    0.7848   26.9762 C   0  0  0  0  0  0  0  0  0  0  0  0
  -13.1497    1.0843   28.2211 C   0  0  0  0  0  0  0  0  0  0  0  0
  -11.6288    1.1495   27.8411 C   0  0  0  0  0  0  0  0  0  0  0  0
  4 11  1  0
 12 10  1  6
 12 13  1  0
 12 14  1  0
 13 20  2  0
 20 21  1  0
 21 22  2  0
 13 23  1  0
 22 23  1  0
 14 15  2  0
 15 16  1  0
 16 17  2  0
 17 18  1  0
 18 19  2  0
 19 14  1  0
  1  2  2  0
  3  6  2  0
  6  5  1  0
  5  4  2  0
  4  1  1  0
  2  3  1  0
  3 10  1  0
 10  9  2  0
  9  8  1  0
  8  7  2  0
  7  2  1  0
M  END
$$$$
