No_1975-complexes_sdf/6BKW-FPZ/2024-09-17-14-21-01/
     RDKit          3D

 20 22  0  0  0  0  0  0  0  0999 V2000
   -7.9040    3.9820   27.1177 C   0  0  0  0  0  0  0  0  0  0  0  0
   -9.0711    4.3164   27.0630 C   0  0  0  0  0  0  0  0  0  0  0  0
   -9.5294    5.4517   27.7215 C   0  0  0  0  0  0  0  0  0  0  0  0
  -10.0314    3.1095   27.2528 C   0  0  0  0  0  0  0  0  0  0  0  0
  -11.1586    3.2384   27.5987 C   0  0  0  0  0  0  0  0  0  0  0  0
   -7.4069    2.5716   27.1262 C   0  0  0  0  0  0  0  0  0  0  0  0
   -9.3969    1.8655   27.2462 C   0  0  0  0  0  0  0  0  0  0  0  0
   -8.1205    1.5879   27.0488 C   0  0  0  0  0  0  0  0  0  0  0  0
  -11.5219    2.9581   28.9430 C   0  0  0  0  0  0  0  0  0  0  0  0
  -12.3011    3.5908   26.7030 C   0  0  0  0  0  0  0  0  0  0  0  0
  -13.5452    3.9435   27.1278 C   0  0  0  0  0  0  0  0  0  0  0  0
  -12.9421    3.2403   29.4408 C   0  0  0  0  0  0  0  0  0  0  0  0
  -13.8650    3.7388   28.5400 C   0  0  0  0  0  0  0  0  0  0  0  0
   -7.5599    0.2569   27.0634 C   0  0  0  0  0  0  0  0  0  0  0  0
   -7.2934   -0.3277   25.9430 C   0  0  0  0  0  0  0  0  0  0  0  0
   -6.6577   -1.6063   25.8326 C   0  0  0  0  0  0  0  0  0  0  0  0
   -6.4022   -2.1192   24.6034 C   0  0  0  0  0  0  0  0  0  0  0  0
   -6.8039   -1.3773   23.3918 C   0  0  0  0  0  0  0  0  0  0  0  0
   -7.3990   -0.1324   23.5331 C   0  0  0  0  0  0  0  0  0  0  0  0
   -7.5983    0.3985   24.7917 C   0  0  0  0  0  0  0  0  0  0  0  0
  2  3  1  0
  4  5  1  0
  8 14  1  0
 14 15  1  0
  5  9  2  0
  9 12  1  0
 12 13  2  0
 13 11  1  0
 11 10  2  0
 10  5  1  0
  1  2  2  0
  2  4  1  0
  4  7  2  0
  7  8  1  0
  8  6  2  0
  6  1  1  0
 15 16  2  0
 16 17  1  0
 17 18  2  0
 18 19  1  0
 19 20  2  0
 20 15  1  0
M  END
$$$$
