No_1154-complexes_sdf/6BKW-FPZ/2024-09-17-14-21-01/
     RDKit          3D

 40 44  0  0  0  0  0  0  0  0999 V2000
   -7.9040    3.9820   27.1177 C   0  0  0  0  0  0  0  0  0  0  0  0
   -7.8663    4.8694   27.9238 C   0  0  0  0  0  0  0  0  0  0  0  0
   -9.0491    3.8523   26.2542 C   0  0  0  0  0  0  0  0  0  0  0  0
   -8.7661    5.9491   27.9690 C   0  0  0  0  0  0  0  0  0  0  0  0
   -9.9295    4.8502   26.2323 C   0  0  0  0  0  0  0  0  0  0  0  0
   -9.8077    5.9288   27.0933 C   0  0  0  0  0  0  0  0  0  0  0  0
   -6.9996    2.9096   27.1565 O   0  0  0  0  0  0  0  0  0  0  0  0
   -7.3398    1.5998   26.9303 C   0  0  0  0  0  0  0  0  0  0  0  0
   -6.3550    0.7362   27.3720 C   0  0  0  0  0  0  0  0  0  0  0  0
   -6.5544   -0.6599   27.2259 C   0  0  0  0  0  0  0  0  0  0  0  0
   -7.8175   -1.0549   26.7456 C   0  0  0  0  0  0  0  0  0  0  0  0
   -8.4867    0.9195   26.6115 C   0  0  0  0  0  0  0  0  0  0  0  0
   -8.6458   -0.2099   26.5820 C   0  0  0  0  0  0  0  0  0  0  0  0
   -5.1237    1.1784   27.8416 O   0  0  0  0  0  0  0  0  0  0  0  0
   -4.5711    0.5511   28.9222 C   0  0  0  0  0  0  0  0  0  0  0  0
   -3.7148   -0.5543   28.6191 C   0  0  1  0  0  0  0  0  0  0  0  0
   -2.7110   -0.2583   27.7930 C   0  0  0  0  0  0  0  0  0  0  0  0
   -2.5763    0.9789   27.3357 C   0  0  0  0  0  0  0  0  0  0  0  0
   -2.3134   -1.3750   26.8668 C   0  0  0  0  0  0  0  0  0  0  0  0
   -3.1829   -0.9910   29.9094 O   0  0  0  0  0  0  0  0  0  0  0  0
   -3.8547   -1.7235   30.7235 C   0  0  0  0  0  0  0  0  0  0  0  0
   -3.2084   -2.2518   31.5788 C   0  0  0  0  0  0  0  0  0  0  0  0
   -3.0704   -2.3311   32.5690 C   0  0  0  0  0  0  0  0  0  0  0  0
   -3.7956   -1.3348   33.5500 C   0  0  0  0  0  0  0  0  0  0  0  0
   -4.8646   -0.7541   32.8553 C   0  0  0  0  0  0  0  0  0  0  0  0
   -5.0450   -1.0088   31.3625 C   0  0  0  0  0  0  0  0  0  0  0  0
   -3.7753   -1.2280   35.0011 C   0  0  0  0  0  0  0  0  0  0  0  0
   -2.6903   -0.6184   35.5845 C   0  0  0  0  0  0  0  0  0  0  0  0
   -2.5879   -0.3708   36.9922 C   0  0  0  0  0  0  0  0  0  0  0  0
   -3.7635   -0.6662   37.7760 C   0  0  0  0  0  0  0  0  0  0  0  0
   -4.8871   -1.4531   35.8293 C   0  0  0  0  0  0  0  0  0  0  0  0
   -4.8538   -1.1765   37.1926 C   0  0  0  0  0  0  0  0  0  0  0  0
   -1.4378   -0.2863   34.8435 C   0  0  0  0  0  0  0  0  0  0  0  0
   -0.3425   -0.1812   35.5017 O   0  0  0  0  0  0  0  0  0  0  0  0
   -1.4750    0.1600   33.6392 O   0  0  0  0  0  0  0  0  0  0  0  0
   -6.0028   -1.4451   38.1579 C   0  0  0  0  0  0  0  0  0  0  0  0
   -6.7818   -2.1826   37.8679 O   0  0  0  0  0  0  0  0  0  0  0  0
   -5.8612   -0.9002   39.4011 N   0  0  0  0  0  0  0  0  0  0  0  0
   -5.1144    0.0817   39.9060 C   0  0  0  0  0  0  0  0  0  0  0  0
   -3.8121    0.1250   39.2159 C   0  0  0  0  0  0  0  0  0  0  0  0
  1  7  1  0
  7  8  1  0
  9 14  1  0
 14 15  1  0
 16 15  1  1
 16 17  1  0
 17 18  1  0
 17 19  1  0
 16 20  1  0
 20 21  1  0
 24 27  1  0
 28 33  1  0
 33 34  2  0
 33 35  1  0
 32 36  1  0
 36 37  2  0
 36 38  1  0
 38 39  1  0
 30 40  1  0
 39 40  1  0
  8  9  1  0
  9 10  2  0
 10 11  1  0
 11 13  2  0
 13 12  1  0
 12  8  2  0
  1  2  2  0
  2  4  1  0
  4  6  2  0
  6  5  1  0
  5  3  2  0
  3  1  1  0
 27 28  2  0
 28 29  1  0
 29 30  2  0
 30 32  1  0
 32 31  2  0
 31 27  1  0
 21 22  2  0
 22 23  1  0
 23 24  2  0
 24 25  1  0
 25 26  2  0
 26 21  1  0
M  END
$$$$
