No_1798-complexes_sdf/6BKW-FPZ/2024-09-17-14-21-01/
     RDKit          3D

 12 13  0  0  0  0  0  0  0  0999 V2000
   -7.9040    3.9820   27.1177 C   0  0  0  0  0  0  0  0  0  0  0  0
   -7.8663    4.8694   27.9238 C   0  0  0  0  0  0  0  0  0  0  0  0
   -7.4547    2.7080   27.4594 C   0  0  0  0  0  0  0  0  0  0  0  0
   -7.9337    1.5946   26.8372 C   0  0  0  0  0  0  0  0  0  0  0  0
   -7.4947    0.3059   27.1189 C   0  0  0  0  0  0  0  0  0  0  0  0
   -8.6696    6.0289   27.7710 C   0  0  0  0  0  0  0  0  0  0  0  0
   -8.9190    1.7899   25.8011 C   0  0  0  0  0  0  0  0  0  0  0  0
   -9.4032    3.0125   25.4418 C   0  0  0  0  0  0  0  0  0  0  0  0
   -8.9951    4.1080   26.2131 C   0  0  0  0  0  0  0  0  0  0  0  0
   -9.4901    5.3847   26.1506 C   0  0  0  0  0  0  0  0  0  0  0  0
   -8.2853   -0.7902   27.2167 C   0  0  0  0  0  0  0  0  0  0  0  0
   -7.8317   -2.0332   27.6817 C   0  0  0  0  0  0  0  0  0  0  0  0
  1  2  1  0
  2  6  1  0
  6 10  1  0
  9 10  1  0
  5 11  1  0
 11 12  2  0
  5  4  1  0
  1  3  2  0
  3  4  1  0
  4  7  2  0
  7  8  1  0
  8  9  2  0
  9  1  1  0
M  END
$$$$
