No_1596-complexes_sdf/6BKW-FPZ/2024-09-17-14-21-01/
     RDKit          3D

 28 30  0  0  0  0  0  0  0  0999 V2000
   -7.9040    3.9820   27.1177 C   0  0  0  0  0  0  0  0  0  0  0  0
   -9.0711    4.3164   27.0630 C   0  0  0  0  0  0  0  0  0  0  0  0
   -9.5294    5.4517   27.7215 C   0  0  0  0  0  0  0  0  0  0  0  0
   -7.4336    2.7132   26.5681 C   0  0  0  0  0  0  0  0  0  0  0  0
   -8.3353    1.8569   26.0442 C   0  0  0  0  0  0  0  0  0  0  0  0
   -9.6477    2.2853   25.9146 C   0  0  0  0  0  0  0  0  0  0  0  0
  -10.0346    3.4497   26.4483 C   0  0  2  0  0  0  0  0  0  0  0  0
   -7.8750    0.5509   25.5918 C   0  0  0  0  0  0  0  0  0  0  0  0
   -8.0040    0.2730   24.4392 O   0  0  0  0  0  0  0  0  0  0  0  0
   -7.1075   -0.0974   26.3993 O   0  0  0  0  0  0  0  0  0  0  0  0
   -6.9072    4.6992   27.8672 N   0  0  0  0  0  0  0  0  0  0  0  0
   -7.2527    5.8683   28.4621 C   0  0  0  0  0  0  0  0  0  0  0  0
   -8.5660    6.2505   28.3318 N   0  0  0  0  0  0  0  0  0  0  0  0
  -11.4161    3.8767   26.1668 C   0  0  2  0  0  0  0  0  0  0  0  0
  -12.4313    3.9986   27.4562 Cl  0  0  0  0  0  0  0  0  0  0  0  0
  -11.9042    4.0785   24.9015 C   0  0  0  0  0  0  0  0  0  0  0  0
  -11.0691    4.3001   23.8166 C   0  0  0  0  0  0  0  0  0  0  0  0
  -11.4851    4.5749   22.5446 C   0  0  0  0  0  0  0  0  0  0  0  0
  -12.8625    4.5951   22.3831 C   0  0  0  0  0  0  0  0  0  0  0  0
  -13.7615    4.4560   23.4330 C   0  0  0  0  0  0  0  0  0  0  0  0
  -13.2693    4.2443   24.7005 C   0  0  0  0  0  0  0  0  0  0  0  0
   -6.5337   -1.2377   26.1770 C   0  0  0  0  0  0  0  0  0  0  0  0
   -5.4409   -1.6085   26.5681 C   0  0  0  0  0  0  0  0  0  0  0  0
   -4.9532   -2.4307   27.1540 Cl  0  0  0  0  0  0  0  0  0  0  0  0
   -5.0247   -0.3435   27.3221 F   0  0  0  0  0  0  0  0  0  0  0  0
   -4.5205   -1.0325   25.4879 F   0  0  0  0  0  0  0  0  0  0  0  0
   -6.7914   -1.4703   24.9268 F   0  0  0  0  0  0  0  0  0  0  0  0
   -7.4832   -2.1363   26.7286 F   0  0  0  0  0  0  0  0  0  0  0  0
  1  4  1  0
  4  5  1  0
  5  6  1  0
  2  7  1  0
  7  6  1  6
  5  8  1  0
  8  9  2  0
  8 10  1  0
  7 14  1  0
 14 15  1  6
 14 16  1  0
 10 22  1  0
 22 23  1  0
 23 24  1  0
 23 25  1  0
 23 26  1  0
 22 27  1  0
 22 28  1  0
 16 17  2  0
 17 18  1  0
 18 19  2  0
 19 20  1  0
 20 21  2  0
 21 16  1  0
  1  2  1  0
  2  3  2  0
  3 13  1  0
 13 12  2  0
 12 11  1  0
 11  1  2  0
M  END
$$$$
