No_17-complexes_sdf/6BKW-FPZ/2024-09-17-14-21-01/
     RDKit          3D

 23 25  0  0  0  0  0  0  0  0999 V2000
   -7.9040    3.9820   27.1177 C   0  0  0  0  0  0  0  0  0  0  0  0
   -7.8663    4.8694   27.9238 C   0  0  0  0  0  0  0  0  0  0  0  0
   -9.0491    3.8523   26.2542 C   0  0  0  0  0  0  0  0  0  0  0  0
   -8.7661    5.9491   27.9690 C   0  0  0  0  0  0  0  0  0  0  0  0
   -9.9295    4.8502   26.2323 C   0  0  0  0  0  0  0  0  0  0  0  0
   -9.8077    5.9288   27.0933 C   0  0  0  0  0  0  0  0  0  0  0  0
   -7.0146    2.9513   27.1368 F   0  0  0  0  0  0  0  0  0  0  0  0
   -9.1015    2.7190   25.2776 C   0  0  0  0  0  0  0  0  0  0  0  0
  -10.0875    2.0644   25.3590 N   0  0  0  0  0  0  0  0  0  0  0  0
  -10.4367    1.1049   24.5742 C   0  0  0  0  0  0  0  0  0  0  0  0
  -11.6268    0.4330   24.6604 C   0  0  0  0  0  0  0  0  0  0  0  0
   -9.6686    0.6777   23.5893 F   0  0  0  0  0  0  0  0  0  0  0  0
  -12.1456    0.2922   25.9110 C   0  0  0  0  0  0  0  0  0  0  0  0
  -11.8664    1.3348   26.9227 C   0  0  2  0  0  0  0  0  0  0  0  0
  -10.8149    2.1230   26.6488 C   0  0  0  0  0  0  0  0  0  0  0  0
  -12.6139    1.2430   28.2187 C   0  0  0  0  0  0  0  0  0  0  0  0
  -12.7968    0.2294   28.8918 C   0  0  0  0  0  0  0  0  0  0  0  0
  -13.5081    0.3112   30.0783 C   0  0  0  0  0  0  0  0  0  0  0  0
  -12.9731    2.5499   28.7177 C   0  0  0  0  0  0  0  0  0  0  0  0
  -13.6563    2.7034   29.9192 C   0  0  0  0  0  0  0  0  0  0  0  0
  -13.8839    1.5391   30.6504 C   0  0  0  0  0  0  0  0  0  0  0  0
  -14.7675    1.6023   32.3147 Br  0  0  0  0  0  0  0  0  0  0  0  0
  -14.0882    4.2616   30.5631 Cl  0  0  0  0  0  0  0  0  0  0  0  0
  1  7  1  0
  3  8  1  0
  8  9  1  0
  9 10  1  0
 10 12  1  0
 11 13  1  0
  9 15  1  0
 14 15  1  0
 14 16  1  1
 21 22  1  0
 20 23  1  0
 10 11  1  0
 13 14  1  0
  1  2  2  0
  2  4  1  0
  4  6  2  0
  6  5  1  0
  5  3  2  0
  3  1  1  0
 16 17  2  0
 17 18  1  0
 18 21  2  0
 21 20  1  0
 20 19  2  0
 19 16  1  0
M  END
$$$$
