No_1974-complexes_sdf/6BKW-FPZ/2024-09-17-14-21-01/
     RDKit          3D

 33 37  0  0  0  0  0  0  0  0999 V2000
   -7.9040    3.9820   27.1177 C   0  0  0  0  0  0  0  0  0  0  0  0
   -8.2057    2.8231   26.8733 C   0  0  0  0  0  0  0  0  0  0  0  0
   -9.2962    2.4021   26.1155 C   0  0  0  0  0  0  0  0  0  0  0  0
   -6.8682    4.5169   28.0704 C   0  0  0  0  0  0  0  0  0  0  0  0
  -10.0578    3.3688   25.5520 C   0  0  0  0  0  0  0  0  0  0  0  0
   -9.6997    4.7480   25.6981 C   0  0  0  0  0  0  0  0  0  0  0  0
   -8.6783    5.1111   26.5262 C   0  0  0  0  0  0  0  0  0  0  0  0
  -11.1704    3.0677   24.6150 C   0  0  0  0  0  0  0  0  0  0  0  0
  -12.3590    2.8658   25.1091 C   0  0  0  0  0  0  0  0  0  0  0  0
  -12.5741    2.9240   26.5581 C   0  0  0  0  0  0  0  0  0  0  0  0
  -13.9397    2.8007   27.0712 C   0  0  0  0  0  0  0  0  0  0  0  0
  -14.9207    2.5061   26.1536 C   0  0  0  0  0  0  0  0  0  0  0  0
  -14.7385    2.4571   24.8461 C   0  0  0  0  0  0  0  0  0  0  0  0
  -13.4693    2.6803   24.2513 C   0  0  0  0  0  0  0  0  0  0  0  0
  -10.8401    2.9909   23.2174 C   0  0  0  0  0  0  0  0  0  0  0  0
   -5.7577    3.7586   28.1622 N   0  0  0  0  0  0  0  0  0  0  0  0
   -6.9980    5.6387   28.7116 N   0  0  0  0  0  0  0  0  0  0  0  0
   -9.9479    3.0189   22.6971 C   0  0  0  0  0  0  0  0  0  0  0  0
   -9.7049    2.9165   21.2236 C   0  0  0  0  0  0  0  0  0  0  0  0
  -10.8423    2.6467   20.5138 C   0  0  0  0  0  0  0  0  0  0  0  0
  -12.0549    2.5711   21.0977 C   0  0  0  0  0  0  0  0  0  0  0  0
  -12.1135    2.7385   22.4794 C   0  0  0  0  0  0  0  0  0  0  0  0
  -13.3202    2.6293   23.0991 N   0  0  0  0  0  0  0  0  0  0  0  0
  -14.1088    2.8583   28.5613 C   0  0  1  0  0  0  0  0  0  0  0  0
  -14.3789    3.8431   29.2205 C   0  0  0  0  0  0  0  0  0  0  0  0
  -14.1976    5.1473   28.8363 C   0  0  0  0  0  0  0  0  0  0  0  0
  -13.5296    5.4266   27.6592 C   0  0  0  0  0  0  0  0  0  0  0  0
  -14.3250    1.4561   29.0816 C   0  0  0  0  0  0  0  0  0  0  0  0
  -13.1627    0.7634   29.1135 C   0  0  0  0  0  0  0  0  0  0  0  0
  -13.1497   -0.6295   29.5063 C   0  0  0  0  0  0  0  0  0  0  0  0
  -14.2783   -1.0863   30.1233 C   0  0  0  0  0  0  0  0  0  0  0  0
  -15.4164   -0.3040   30.1783 C   0  0  0  0  0  0  0  0  0  0  0  0
  -15.4359    0.8689   29.7371 C   0  0  0  0  0  0  0  0  0  0  0  0
  1  4  1  0
  5  8  1  0
  4 16  1  0
  4 17  1  0
 24 11  1  6
 24 25  1  0
 25 26  2  3
 26 27  1  0
 24 28  1  0
  1  2  2  0
  2  3  1  0
  3  5  2  0
  5  6  1  0
  6  7  2  0
  7  1  1  0
 15 18  1  0
 18 19  2  0
 19 20  1  0
 20 21  2  0
 21 22  1  0
  9 10  2  0
 10 11  1  0
 11 12  2  0
 12 13  1  0
 13 14  2  0
 28 29  2  0
 29 30  1  0
 30 31  2  0
 31 32  1  0
 32 33  2  0
 33 28  1  0
  8  9  1  0
  9 14  1  0
 14 23  1  0
 23 22  2  0
 22 15  1  0
 15  8  2  0
M  END
$$$$
