No_1580-complexes_sdf/6BKW-FPZ/2024-09-17-14-21-01/
     RDKit          3D

 38 42  0  0  0  0  0  0  0  0999 V2000
   -7.7129    4.2099   27.0854 C   0  0  0  0  0  0  0  0  0  0  0  0
   -7.7814    5.1722   27.8972 C   0  0  0  0  0  0  0  0  0  0  0  0
   -8.8776    3.8408   26.3416 C   0  0  0  0  0  0  0  0  0  0  0  0
   -8.9136    2.6330   25.5655 C   0  0  0  0  0  0  0  0  0  0  0  0
   -8.8361    6.1389   27.9032 C   0  0  0  0  0  0  0  0  0  0  0  0
   -9.9718    4.7048   26.3433 C   0  0  0  0  0  0  0  0  0  0  0  0
   -9.9205    5.8499   27.1013 C   0  0  0  0  0  0  0  0  0  0  0  0
   -8.2849    1.4838   26.1651 C   0  0  0  0  0  0  0  0  0  0  0  0
   -8.3165    0.2563   25.5490 C   0  0  0  0  0  0  0  0  0  0  0  0
   -8.8787    0.2248   24.2875 C   0  0  0  0  0  0  0  0  0  0  0  0
   -9.4553    2.4575   24.3554 C   0  0  0  0  0  0  0  0  0  0  0  0
   -9.4430    1.2865   23.6894 C   0  0  0  0  0  0  0  0  0  0  0  0
  -10.0492    1.2103   22.3476 C   0  0  0  0  0  0  0  0  0  0  0  0
  -10.3063    2.2752   21.7327 N   0  0  0  0  0  0  0  0  0  0  0  0
  -11.3540    2.4654   20.8515 C   0  0  0  0  0  0  0  0  0  0  0  0
  -10.0698    0.1293   21.7031 O   0  0  0  0  0  0  0  0  0  0  0  0
   -6.7491    5.5711   28.6669 F   0  0  0  0  0  0  0  0  0  0  0  0
   -7.6323   -0.8792   26.1305 C   0  0  0  0  0  0  0  0  0  0  0  0
   -6.5743   -1.2278   25.8458 C   0  0  0  0  0  0  0  0  0  0  0  0
   -5.7318   -0.6245   24.7942 C   0  0  0  0  0  0  0  0  0  0  0  0
   -4.4837   -1.1488   24.6543 F   0  0  0  0  0  0  0  0  0  0  0  0
   -5.5287    0.6375   25.0290 F   0  0  0  0  0  0  0  0  0  0  0  0
   -6.2717   -0.6897   23.5467 F   0  0  0  0  0  0  0  0  0  0  0  0
   -8.5080   -1.5620   27.1351 C   0  0  0  0  0  0  0  0  0  0  0  0
   -9.2989   -1.1787   27.8133 C   0  0  0  0  0  0  0  0  0  0  0  0
  -10.0733   -1.9276   28.8427 C   0  0  0  0  0  0  0  0  0  0  0  0
   -9.6056   -3.1616   29.1324 C   0  0  0  0  0  0  0  0  0  0  0  0
  -10.2771   -3.8975   30.0967 C   0  0  0  0  0  0  0  0  0  0  0  0
   -8.0744   -3.0023   27.4456 C   0  0  0  0  0  0  0  0  0  0  0  0
   -8.7197   -3.6953   28.4166 C   0  0  0  0  0  0  0  0  0  0  0  0
   -9.6737   -4.6433   30.9544 C   0  0  0  0  0  0  0  0  0  0  0  0
   -8.2409   -4.5385   31.0424 C   0  0  0  0  0  0  0  0  0  0  0  0
   -7.6755   -4.0275   31.9734 C   0  0  0  0  0  0  0  0  0  0  0  0
   -6.2054   -3.8880   32.1840 C   0  0  0  0  0  0  0  0  0  0  0  0
   -5.4816   -4.3995   31.1426 C   0  0  0  0  0  0  0  0  0  0  0  0
   -6.0759   -4.9621   30.0967 C   0  0  0  0  0  0  0  0  0  0  0  0
   -7.4303   -5.0089   29.9929 C   0  0  0  0  0  0  0  0  0  0  0  0
   -7.9681   -4.7363   28.5856 C   0  0  0  0  0  0  0  0  0  0  0  0
  3  4  1  0
 12 13  1  0
 13 14  1  0
 14 15  1  0
 13 16  2  0
  2 17  1  0
  9 18  1  0
 18 19  2  3
 19 20  1  0
 20 21  1  0
 20 22  1  0
 20 23  1  0
 18 24  1  0
 27 28  1  0
 28 31  2  0
 31 32  1  0
 30 38  1  0
 37 38  1  0
 24 25  2  0
 25 26  1  0
 26 27  2  0
 27 30  1  0
 30 29  2  0
 29 24  1  0
 32 33  2  0
 33 34  1  0
 34 35  2  0
 35 36  1  0
 36 37  2  0
 37 32  1  0
  4  8  2  0
  8  9  1  0
  9 10  2  0
 10 12  1  0
 12 11  2  0
 11  4  1  0
  1  2  2  0
  2  5  1  0
  5  7  2  0
  7  6  1  0
  6  3  2  0
  3  1  1  0
M  END
$$$$
