No_1808-complexes_sdf/6BKW-FPZ/2024-09-17-14-21-01/
     RDKit          3D

 26 29  0  0  0  0  0  0  0  0999 V2000
   -7.9040    3.9820   27.1177 C   0  0  0  0  0  0  0  0  0  0  0  0
   -7.8663    4.8694   27.9238 C   0  0  0  0  0  0  0  0  0  0  0  0
   -9.0806    3.1428   27.1220 C   0  0  0  0  0  0  0  0  0  0  0  0
   -9.1366    1.9856   26.2314 C   0  0  0  0  0  0  0  0  0  0  0  0
   -6.7011    5.6171   28.0526 F   0  0  0  0  0  0  0  0  0  0  0  0
  -10.1046    3.4133   28.0504 C   0  0  0  0  0  0  0  0  0  0  0  0
   -8.7510    0.8173   26.6603 C   0  0  0  0  0  0  0  0  0  0  0  0
   -8.8461   -0.3270   25.7972 C   0  0  0  0  0  0  0  0  0  0  0  0
  -11.3062    2.6358   28.0627 C   0  0  0  0  0  0  0  0  0  0  0  0
   -9.3898   -0.0987   24.5462 C   0  0  0  0  0  0  0  0  0  0  0  0
   -9.7864    1.2078   24.1207 C   0  0  0  0  0  0  0  0  0  0  0  0
   -9.6568    2.2712   24.9904 C   0  0  0  0  0  0  0  0  0  0  0  0
  -12.3263    2.9972   28.9381 C   0  0  0  0  0  0  0  0  0  0  0  0
  -13.2917    2.1238   29.2557 C   0  0  0  0  0  0  0  0  0  0  0  0
  -13.3517    0.8841   28.5843 C   0  0  0  0  0  0  0  0  0  0  0  0
  -12.3771    0.5239   27.6641 C   0  0  0  0  0  0  0  0  0  0  0  0
  -11.3045    1.3705   27.5224 C   0  0  0  0  0  0  0  0  0  0  0  0
   -9.9512    4.5789   28.8804 C   0  0  0  0  0  0  0  0  0  0  0  0
   -8.8247    5.5620   28.6765 C   0  0  0  0  0  0  0  0  0  0  0  0
  -10.0752    3.6028   24.5089 C   0  0  0  0  0  0  0  0  0  0  0  0
  -10.7503    3.8364   23.3013 C   0  0  0  0  0  0  0  0  0  0  0  0
  -10.7587    2.7330   22.4316 C   0  0  0  0  0  0  0  0  0  0  0  0
  -10.3187    1.4216   22.7986 C   0  0  0  0  0  0  0  0  0  0  0  0
  -11.2377    2.9959   21.0669 C   0  0  0  0  0  0  0  0  0  0  0  0
  -12.5923    3.0554   20.8569 C   0  0  0  0  0  0  0  0  0  0  0  0
  -10.2969    3.1502   20.0219 C   0  0  0  0  0  0  0  0  0  0  0  0
  3  4  1  0
  2  5  1  0
  6  9  1  0
 22 24  1  0
 24 25  1  0
 24 26  1  0
  9 13  2  0
 13 14  1  0
 14 15  2  0
 15 16  1  0
 16 17  2  0
 17  9  1  0
  1  2  2  0
  2 19  1  0
 19 18  2  0
 18  6  1  0
  6  3  2  0
  3  1  1  0
  4  7  2  0
  7  8  1  0
  8 10  2  0
 10 11  1  0
 12  4  1  0
 11 12  2  0
 12 20  1  0
 20 21  2  0
 21 22  1  0
 22 23  2  0
 23 11  1  0
M  END
$$$$
