No_1947-complexes_sdf/6BKW-FPZ/2024-09-17-14-21-01/
     RDKit          3D

 39 42  0  0  0  0  0  0  0  0999 V2000
   -7.9040    3.9820   27.1177 C   0  0  0  0  0  0  0  0  0  0  0  0
   -8.2057    2.8231   26.8733 C   0  0  0  0  0  0  0  0  0  0  0  0
   -8.7695    5.0740   26.7916 C   0  0  0  0  0  0  0  0  0  0  0  0
   -8.4337    6.4678   27.0913 C   0  0  0  0  0  0  0  0  0  0  0  0
   -9.1945    2.4408   26.4350 C   0  0  0  0  0  0  0  0  0  0  0  0
  -10.2047    3.3522   26.0527 C   0  0  0  0  0  0  0  0  0  0  0  0
   -9.9687    4.6754   26.2340 C   0  0  0  0  0  0  0  0  0  0  0  0
   -7.9708    7.4965   26.9508 N   0  0  0  0  0  0  0  0  0  0  0  0
   -7.1833    1.8514   27.3392 F   0  0  0  0  0  0  0  0  0  0  0  0
   -9.5256    1.0137   26.2504 N   0  0  0  0  0  0  0  0  0  0  0  0
  -10.3521    0.5093   25.6335 C   0  0  0  0  0  0  0  0  0  0  0  0
  -10.5011   -0.9024   25.6367 C   0  0  0  0  0  0  0  0  0  0  0  0
   -9.6731   -1.5155   26.5614 C   0  0  0  0  0  0  0  0  0  0  0  0
   -8.7795   -0.9656   27.4105 C   0  0  0  0  0  0  0  0  0  0  0  0
   -8.8597    0.5305   27.5728 C   0  0  0  0  0  0  0  0  0  0  0  0
   -9.7914   -3.0479   26.6299 C   0  0  0  0  0  0  0  0  0  0  0  0
   -8.8825   -3.7000   27.4092 C   0  0  0  0  0  0  0  0  0  0  0  0
   -8.0381   -2.9709   28.3168 C   0  0  0  0  0  0  0  0  0  0  0  0
   -8.0017   -1.6206   28.4262 C   0  0  0  0  0  0  0  0  0  0  0  0
   -7.1267   -3.7187   29.2751 C   0  0  0  0  0  0  0  0  0  0  0  0
   -7.0046   -4.7824   29.4174 O   0  0  0  0  0  0  0  0  0  0  0  0
   -6.2173   -2.8637   29.9773 O   0  0  0  0  0  0  0  0  0  0  0  0
   -5.2006   -2.4163   29.7606 C   0  0  0  0  0  0  0  0  0  0  0  0
   -4.9445   -1.1046   30.2129 C   0  0  0  0  0  0  0  0  0  0  0  0
   -4.5548   -0.0134   29.2676 C   0  0  0  0  0  0  0  0  0  0  0  0
   -4.0609   -0.4035   28.0662 C   0  0  0  0  0  0  0  0  0  0  0  0
   -4.2922   -1.6669   27.6057 C   0  0  0  0  0  0  0  0  0  0  0  0
   -5.0839   -2.3993   28.1244 C   0  0  0  0  0  0  0  0  0  0  0  0
   -4.3629   -1.5668   26.0058 C   0  0  0  0  0  0  0  0  0  0  0  0
   -4.4580   -0.5690   25.5087 O   0  0  0  0  0  0  0  0  0  0  0  0
   -4.3109   -2.7327   25.3763 N   0  0  0  0  0  0  0  0  0  0  0  0
   -4.5537   -2.8260   23.9373 C   0  0  0  0  0  0  0  0  0  0  0  0
   -5.9866   -2.6211   23.6837 C   0  0  0  0  0  0  0  0  0  0  0  0
   -6.3427   -2.1124   22.5837 C   0  0  0  0  0  0  0  0  0  0  0  0
   -6.4559   -2.8103   21.5240 C   0  0  0  0  0  0  0  0  0  0  0  0
   -7.2473   -3.1383   20.8221 C   0  0  0  0  0  0  0  0  0  0  0  0
   -7.2023   -3.7997   19.4540 C   0  0  0  0  0  0  0  0  0  0  0  0
   -6.2737   -3.6768   18.9619 C   0  0  0  0  0  0  0  0  0  0  0  0
   -5.0302   -3.1198   19.3938 C   0  0  0  0  0  0  0  0  0  0  0  0
  3  4  1  0
  4  8  3  0
  2  9  1  0
  5 10  1  0
 10 11  1  0
 12 13  1  0
 10 15  1  0
 14 15  1  0
 18 20  1  0
 20 21  2  0
 20 22  1  0
 22 23  1  0
 27 29  1  0
 29 30  2  0
 29 31  1  0
 31 32  1  0
 32 33  1  0
 33 34  2  3
 34 35  1  0
 35 36  2  3
 36 37  1  0
 37 38  2  3
 38 39  1  0
 11 12  1  0
 23 24  2  0
 24 25  1  0
 25 26  2  0
 26 27  1  0
 27 28  2  0
 28 23  1  0
 13 14  2  0
 14 19  1  0
 19 18  2  0
 18 17  1  0
 17 16  2  0
 16 13  1  0
  1  2  2  0
  2  5  1  0
  5  6  2  0
  6  7  1  0
  7  3  2  0
  3  1  1  0
M  END
$$$$
