No_1980-complexes_sdf/6BKW-FPZ/2024-09-17-14-21-01/
     RDKit          3D

 14 14  0  0  0  0  0  0  0  0999 V2000
   -7.9040    3.9820   27.1177 C   0  0  0  0  0  0  0  0  0  0  0  0
   -8.2057    2.8231   26.8733 C   0  0  0  0  0  0  0  0  0  0  0  0
   -9.2962    2.4021   26.1155 C   0  0  0  0  0  0  0  0  0  0  0  0
   -8.7358    5.0662   26.5917 C   0  0  0  0  0  0  0  0  0  0  0  0
   -9.7618    4.7023   25.7546 C   0  0  0  0  0  0  0  0  0  0  0  0
  -10.0066    3.4105   25.4922 C   0  0  0  0  0  0  0  0  0  0  0  0
   -8.3943    6.4761   26.8801 C   0  0  0  0  0  0  0  0  0  0  0  0
   -8.0394    6.8605   28.0789 N   0  0  0  0  0  0  0  0  0  0  0  0
   -8.5968    7.4035   25.9607 N   0  0  0  0  0  0  0  0  0  0  0  0
   -7.5447    1.5281   27.3872 C   0  0  0  0  0  0  0  0  0  0  0  0
   -6.2763    1.6777   27.8471 N   0  0  0  0  0  0  0  0  0  0  0  0
   -5.6053    0.5692   28.2683 C   0  0  0  0  0  0  0  0  0  0  0  0
   -4.2236    0.7730   28.7730 C   0  0  0  0  0  0  0  0  0  0  0  0
   -6.1517   -0.6916   28.2542 C   0  0  0  0  0  0  0  0  0  0  0  0
  4  7  1  0
  7  8  2  0
  7  9  1  0
  2 10  1  0
 10 11  2  3
 11 12  1  0
 12 13  1  0
 12 14  1  0
  1  2  2  0
  2  3  1  0
  3  6  2  0
  6  5  1  0
  5  4  2  0
  4  1  1  0
M  END
$$$$
