No_1299-complexes_sdf/6BKW-FPZ/2024-09-17-14-21-01/
     RDKit          3D

 19 20  0  0  0  0  0  0  0  0999 V2000
   -7.2496    3.8871   27.4508 C   0  0  0  0  0  0  0  0  0  0  0  0
   -7.6161    2.7143   27.1523 C   0  0  0  0  0  0  0  0  0  0  0  0
   -8.8302    2.4659   26.5056 C   0  0  0  0  0  0  0  0  0  0  0  0
   -8.1584    5.0089   27.3234 C   0  0  0  0  0  0  0  0  0  0  0  0
   -7.8138    6.3406   27.7108 C   0  0  0  0  0  0  0  0  0  0  0  0
   -9.7360    3.4989   26.3532 C   0  0  0  0  0  0  0  0  0  0  0  0
   -9.3942    4.8432   26.7521 C   0  0  0  0  0  0  0  0  0  0  0  0
   -9.1857    1.0968   26.1448 C   0  0  0  0  0  0  0  0  0  0  0  0
   -9.0970    0.6968   25.0937 N   0  0  0  0  0  0  0  0  0  0  0  0
   -8.7674   -0.4070   24.5887 C   0  0  0  0  0  0  0  0  0  0  0  0
   -8.6339   -0.6121   23.1460 C   0  0  0  0  0  0  0  0  0  0  0  0
   -8.1082   -1.6235   22.4448 C   0  0  0  0  0  0  0  0  0  0  0  0
   -7.6407   -2.7195   23.2351 C   0  0  0  0  0  0  0  0  0  0  0  0
   -7.6980   -2.6175   24.5991 C   0  0  0  0  0  0  0  0  0  0  0  0
   -8.1283   -1.4748   25.2572 C   0  0  0  0  0  0  0  0  0  0  0  0
   -9.1501    0.2868   27.1271 O   0  0  0  0  0  0  0  0  0  0  0  0
   -7.4914    6.9911   26.9086 F   0  0  0  0  0  0  0  0  0  0  0  0
   -8.8784    6.8149   28.3314 F   0  0  0  0  0  0  0  0  0  0  0  0
   -6.8557    6.2131   28.7302 F   0  0  0  0  0  0  0  0  0  0  0  0
  4  5  1  0
  3  8  1  0
  8  9  1  0
  9 10  1  0
  8 16  2  0
  5 17  1  0
  5 18  1  0
  5 19  1  0
  1  2  2  0
  2  3  1  0
  3  6  2  0
  6  7  1  0
  7  4  2  0
  4  1  1  0
 10 11  2  0
 11 12  1  0
 12 13  2  0
 13 14  1  0
 14 15  2  0
 15 10  1  0
M  END
$$$$
