No_191-complexes_sdf/6BKW-FPZ/2024-09-17-14-21-01/
     RDKit          3D

 22 23  0  0  0  0  0  0  0  0999 V2000
   -7.2496    3.8871   27.4508 C   0  0  0  0  0  0  0  0  0  0  0  0
   -7.9379    4.9063   27.8518 C   0  0  0  0  0  0  0  0  0  0  0  0
   -9.3376    4.8647   27.7795 C   0  0  0  0  0  0  0  0  0  0  0  0
   -7.8544    2.6294   27.0414 C   0  0  0  0  0  0  0  0  0  0  0  0
   -9.2852    2.6570   27.0666 C   0  0  0  0  0  0  0  0  0  0  0  0
  -10.0126    3.7528   27.4890 C   0  0  0  0  0  0  0  0  0  0  0  0
  -11.5186    3.8830   27.5378 C   0  0  0  0  0  0  0  0  0  0  0  0
  -11.9233    4.6287   28.1563 F   0  0  0  0  0  0  0  0  0  0  0  0
  -11.9660    2.5689   28.0666 F   0  0  0  0  0  0  0  0  0  0  0  0
  -12.0027    3.8551   26.2710 F   0  0  0  0  0  0  0  0  0  0  0  0
   -7.2779    1.4172   26.7489 C   0  0  0  0  0  0  0  0  0  0  0  0
   -5.8756    0.9780   27.5466 Cl  0  0  0  0  0  0  0  0  0  0  0  0
   -7.7275    0.4801   25.8341 C   0  0  0  0  0  0  0  0  0  0  0  0
   -7.1221    6.3885   28.3125 Cl  0  0  0  0  0  0  0  0  0  0  0  0
   -8.7205    0.7262   25.1038 C   0  0  0  0  0  0  0  0  0  0  0  0
   -9.1850   -0.1508   24.0409 C   0  0  0  0  0  0  0  0  0  0  0  0
  -10.3046    0.2267   23.2520 C   0  0  0  0  0  0  0  0  0  0  0  0
  -10.9742    1.4494   23.5058 C   0  0  0  0  0  0  0  0  0  0  0  0
  -10.5095    2.3161   24.4942 C   0  0  0  0  0  0  0  0  0  0  0  0
   -9.3781    1.9900   25.2696 C   0  0  0  0  0  0  0  0  0  0  0  0
   -8.4320    2.9701   24.6454 O   0  0  0  0  0  0  0  0  0  0  0  0
   -9.8878    1.3468   27.7500 C   0  0  0  0  0  0  0  0  0  0  0  0
  6  7  1  0
  7  8  1  0
  7  9  1  0
  7 10  1  0
  4 11  1  0
 11 12  1  0
 11 13  1  0
  2 14  1  0
 20 21  1  0
  5 22  1  0
 13 15  1  0
 15 16  2  0
 16 17  1  0
 17 18  2  0
 18 19  1  0
 19 20  2  0
 20 15  1  0
  1  2  2  0
  2  3  1  0
  3  6  2  0
  6  5  1  0
  5  4  2  0
  4  1  1  0
M  END
$$$$
