No_1217-complexes_sdf/6BKW-FPZ/2024-09-17-14-21-01/
     RDKit          3D

 16 17  0  0  0  0  0  0  0  0999 V2000
   -7.9040    3.9820   27.1177 C   0  0  0  0  0  0  0  0  0  0  0  0
   -9.0711    4.3164   27.0630 C   0  0  2  0  0  0  0  0  0  0  0  0
   -9.8698    3.9665   25.9494 C   0  0  0  0  0  0  0  0  0  0  0  0
   -7.0332    4.5030   28.2025 C   0  0  0  0  0  0  0  0  0  0  0  0
  -10.9909    4.7237   25.5958 C   0  0  0  0  0  0  0  0  0  0  0  0
   -7.5840    5.4918   28.9036 N   0  0  0  0  0  0  0  0  0  0  0  0
  -11.7343    4.2277   24.5327 C   0  0  0  0  0  0  0  0  0  0  0  0
  -11.2813    3.1973   23.7236 C   0  0  0  0  0  0  0  0  0  0  0  0
  -10.2731    2.6358   24.0249 C   0  0  0  0  0  0  0  0  0  0  0  0
   -9.4204    3.0011   25.1419 C   0  0  0  0  0  0  0  0  0  0  0  0
   -9.2861    5.4391   27.9865 C   0  0  0  0  0  0  0  0  0  0  0  0
   -5.7608    4.1352   28.3256 N   0  0  0  0  0  0  0  0  0  0  0  0
   -9.7421    1.4191   23.2093 C   0  0  0  0  0  0  0  0  0  0  0  0
   -8.8259    0.6347   23.6153 N   0  0  0  0  0  0  0  0  0  0  0  0
   -8.9141   -0.4771   24.0300 C   0  0  0  0  0  0  0  0  0  0  0  0
   -7.7376   -1.1563   24.5147 C   0  0  0  0  0  0  0  0  0  0  0  0
  1  2  1  0
  1  4  1  0
  4  6  2  0
  2 11  1  0
  6 11  1  0
  4 12  1  0
  9 13  1  0
 13 14  1  0
 14 15  1  0
 15 16  2  0
  2  3  1  6
  3  5  2  0
  5  7  1  0
  7  8  2  0
  8  9  1  0
  9 10  2  0
 10  3  1  0
M  END
$$$$
