No_1205-complexes_sdf/6BKW-FPZ/2024-09-17-14-21-01/
     RDKit          3D

 21 23  0  0  0  0  0  0  0  0999 V2000
   -7.9040    3.9820   27.1177 C   0  0  0  0  0  0  0  0  0  0  0  0
   -8.2057    2.8231   26.8733 C   0  0  0  0  0  0  0  0  0  0  0  0
   -9.2962    2.4021   26.1155 C   0  0  0  0  0  0  0  0  0  0  0  0
   -8.7358    5.0662   26.5917 C   0  0  0  0  0  0  0  0  0  0  0  0
   -9.7618    4.7023   25.7546 C   0  0  0  0  0  0  0  0  0  0  0  0
  -10.0066    3.4105   25.4922 C   0  0  0  0  0  0  0  0  0  0  0  0
   -8.2002    6.4309   26.9312 C   0  0  0  0  0  0  0  0  0  0  0  0
   -8.4310    7.3668   27.3170 N   0  0  0  0  0  0  0  0  0  0  0  0
   -7.3582    1.6449   27.4482 C   0  0  0  0  0  0  0  0  0  0  0  0
   -6.1117    1.9086   27.8514 N   0  0  0  0  0  0  0  0  0  0  0  0
   -5.3343    0.8446   28.2947 C   0  0  0  0  0  0  0  0  0  0  0  0
   -5.8364   -0.4009   28.2582 C   0  0  0  0  0  0  0  0  0  0  0  0
   -7.6634    0.2940   27.4446 C   0  0  0  0  0  0  0  0  0  0  0  0
   -4.9485   -1.4424   28.7811 C   0  0  0  0  0  0  0  0  0  0  0  0
   -6.9891   -0.6607   27.9100 C   0  0  0  0  0  0  0  0  0  0  0  0
   -4.2157   -1.6066   29.6049 C   0  0  0  0  0  0  0  0  0  0  0  0
   -3.3469   -2.6980   29.9714 C   0  0  0  0  0  0  0  0  0  0  0  0
   -3.5003   -3.7747   29.1851 C   0  0  0  0  0  0  0  0  0  0  0  0
   -4.7886   -2.7915   28.0800 C   0  0  0  0  0  0  0  0  0  0  0  0
   -4.1547   -3.8229   28.3116 C   0  0  0  0  0  0  0  0  0  0  0  0
   -4.3697   -5.1369   27.2268 Cl  0  0  0  0  0  0  0  0  0  0  0  0
  4  7  1  0
  7  8  3  0
  2  9  1  0
 12 14  1  0
 14 16  2  0
 16 17  1  0
 17 18  2  0
 14 19  1  0
 18 19  1  0
 18 20  1  0
 20 21  1  0
  9 10  2  0
 10 11  1  0
 11 12  2  0
 12 15  1  0
 15 13  2  0
 13  9  1  0
  1  2  2  0
  2  3  1  0
  3  6  2  0
  6  5  1  0
  5  4  2  0
  4  1  1  0
M  END
$$$$
