No_1037-complexes_sdf/6BKW-FPZ/2024-09-17-14-21-01/
     RDKit          3D

 24 27  0  0  0  0  0  0  0  0999 V2000
   -7.7129    4.2099   27.0854 C   0  0  0  0  0  0  0  0  0  0  0  0
   -7.7814    5.1722   27.8972 C   0  0  0  0  0  0  0  0  0  0  0  0
   -8.7889    3.2468   27.2220 C   0  0  1  0  0  0  0  0  0  0  0  0
   -9.8367    3.4196   26.6050 C   0  0  1  0  0  0  0  0  0  0  0  0
   -8.7798    6.1836   27.3663 C   0  0  0  0  0  0  0  0  0  0  0  0
  -10.5764    4.7217   26.6348 C   0  0  0  0  0  0  0  0  0  0  0  0
  -10.1705    5.8365   27.3990 C   0  0  0  0  0  0  0  0  0  0  0  0
  -10.4163    2.4679   25.6445 C   0  0  2  0  0  0  0  0  0  0  0  0
  -10.3215    1.2593   25.8796 C   0  0  0  0  0  0  0  0  0  0  0  0
  -10.2334    0.7554   26.9977 C   0  0  0  0  0  0  0  0  0  0  0  0
   -9.1340    1.0966   28.0557 C   0  0  0  0  0  0  0  0  0  0  0  0
   -8.4584    2.0408   27.9517 C   0  0  0  0  0  0  0  0  0  0  0  0
  -10.8832    3.0262   24.3186 C   0  0  0  0  0  0  0  0  0  0  0  0
  -11.9812    2.5957   23.8835 C   0  0  0  0  0  0  0  0  0  0  0  0
  -10.1101    4.0442   23.6105 C   0  0  0  0  0  0  0  0  0  0  0  0
  -12.5919    3.1309   22.8836 C   0  0  0  0  0  0  0  0  0  0  0  0
  -10.6872    4.7025   22.5459 C   0  0  0  0  0  0  0  0  0  0  0  0
  -11.9121    4.2435   22.0957 C   0  0  0  0  0  0  0  0  0  0  0  0
  -11.2681   -0.2293   27.4987 C   0  0  0  0  0  0  0  0  0  0  0  0
  -12.4399    0.1734   28.0622 C   0  0  0  0  0  0  0  0  0  0  0  0
  -13.3245   -0.6246   28.5739 C   0  0  0  0  0  0  0  0  0  0  0  0
  -10.9787   -1.6025   27.4845 C   0  0  0  0  0  0  0  0  0  0  0  0
  -11.9326   -2.5100   27.9926 C   0  0  0  0  0  0  0  0  0  0  0  0
  -13.1087   -2.0067   28.5431 C   0  0  0  0  0  0  0  0  0  0  0  0
  1  2  1  0
  3  1  1  6
  3  4  1  0
  2  5  1  0
  4  6  1  6
  5  7  1  0
  6  7  1  0
  4  8  1  0
  8  9  1  0
  9 10  2  0
 10 11  1  0
  3 12  1  0
 11 12  1  0
  8 13  1  6
 10 19  1  0
 19 20  2  0
 20 21  1  0
 21 24  2  0
 24 23  1  0
 23 22  2  0
 22 19  1  0
 13 14  2  0
 14 16  1  0
 16 18  2  0
 18 17  1  0
 17 15  2  0
 15 13  1  0
M  END
$$$$
