No_1328-complexes_sdf/6BKW-FPZ/2024-09-17-14-21-01/
     RDKit          3D

 26 30  0  0  0  0  0  0  0  0999 V2000
   -7.7129    4.2099   27.0854 C   0  0  0  0  0  0  0  0  0  0  0  0
   -8.9133    4.4736   27.0998 C   0  0  0  0  0  0  0  0  0  0  0  0
   -9.4643    5.5426   27.7628 C   0  0  0  0  0  0  0  0  0  0  0  0
   -7.2009    2.9448   26.6134 C   0  0  0  0  0  0  0  0  0  0  0  0
   -8.1365    1.9533   26.2981 C   0  0  0  0  0  0  0  0  0  0  0  0
   -9.4501    2.2651   26.2497 C   0  0  0  0  0  0  0  0  0  0  0  0
   -9.8615    3.4703   26.6763 C   0  0  0  0  0  0  0  0  0  0  0  0
   -7.5886    0.6540   25.9006 C   0  0  0  0  0  0  0  0  0  0  0  0
   -8.1821   -0.3358   26.3203 O   0  0  0  0  0  0  0  0  0  0  0  0
   -6.3592    0.5228   25.6672 O   0  0  0  0  0  0  0  0  0  0  0  0
  -10.7345    5.9305   27.5964 C   0  0  0  0  0  0  0  0  0  0  0  0
  -11.7499    4.8873   27.2649 C   0  0  0  0  0  0  0  0  0  0  0  0
  -11.2617    3.7239   26.6821 C   0  0  0  0  0  0  0  0  0  0  0  0
  -12.2809    2.8098   26.2368 C   0  0  0  0  0  0  0  0  0  0  0  0
  -13.4432    2.9760   26.3639 C   0  0  0  0  0  0  0  0  0  0  0  0
  -14.3710    2.1066   25.6497 C   0  0  0  0  0  0  0  0  0  0  0  0
  -13.8404    1.0404   24.9794 C   0  0  0  0  0  0  0  0  0  0  0  0
  -12.5082    0.8186   24.9017 C   0  0  0  0  0  0  0  0  0  0  0  0
  -11.6758    1.7079   25.4624 C   0  0  0  0  0  0  0  0  0  0  0  0
  -10.2396    1.4703   25.5628 C   0  0  0  0  0  0  0  0  0  0  0  0
  -15.8502    2.3213   25.7385 C   0  0  0  0  0  0  0  0  0  0  0  0
  -16.6160    1.7716   25.0137 C   0  0  0  0  0  0  0  0  0  0  0  0
  -18.0066    2.0665   25.0790 C   0  0  0  0  0  0  0  0  0  0  0  0
  -18.4580    3.0037   26.0103 C   0  0  0  0  0  0  0  0  0  0  0  0
  -17.5996    3.6470   26.8174 C   0  0  0  0  0  0  0  0  0  0  0  0
  -16.2433    3.3973   26.7336 C   0  0  0  0  0  0  0  0  0  0  0  0
  5  8  1  0
  8  9  2  0
  8 10  1  0
 13 14  1  0
  6 20  1  0
 19 20  1  0
 16 21  1  0
  2  3  1  0
  3 11  2  0
 11 12  1  0
 12 13  2  0
 13  7  1  0
  1  2  2  0
  2  7  1  0
  7  6  2  0
  6  5  1  0
  5  4  2  0
  4  1  1  0
 14 15  2  0
 15 16  1  0
 16 17  2  0
 17 18  1  0
 18 19  2  0
 19 14  1  0
 21 22  2  0
 22 23  1  0
 23 24  2  0
 24 25  1  0
 25 26  2  0
 26 21  1  0
M  END
$$$$
