No_1405-complexes_sdf/6BKW-FPZ/2024-09-17-14-21-01/
     RDKit          3D

 28 32  0  0  0  0  0  0  0  0999 V2000
   -7.9040    3.9820   27.1177 C   0  0  0  0  0  0  0  0  0  0  0  0
   -9.0711    4.3164   27.0630 C   0  0  0  0  0  0  0  0  0  0  0  0
   -9.8698    3.9665   25.9495 C   0  0  0  0  0  0  0  0  0  0  0  0
   -7.0332    4.5030   28.2025 C   0  0  2  0  0  0  0  0  0  0  0  0
   -9.4357    2.9501   25.1393 C   0  0  0  0  0  0  0  0  0  0  0  0
   -8.2567    2.3218   25.4797 C   0  0  0  0  0  0  0  0  0  0  0  0
   -7.5105    2.7966   26.5752 C   0  0  0  0  0  0  0  0  0  0  0  0
  -10.2472    2.5204   24.0264 C   0  0  0  0  0  0  0  0  0  0  0  0
  -10.1048    1.3095   23.5388 C   0  0  0  0  0  0  0  0  0  0  0  0
  -10.7350    0.9072   22.2888 C   0  0  0  0  0  0  0  0  0  0  0  0
  -11.5710    1.8285   21.6592 C   0  0  0  0  0  0  0  0  0  0  0  0
  -11.0429    3.4711   23.2643 C   0  0  0  0  0  0  0  0  0  0  0  0
  -11.6834    3.1404   22.1509 C   0  0  0  0  0  0  0  0  0  0  0  0
   -6.9471    5.7211   28.4099 N   0  0  0  0  0  0  0  0  0  0  0  0
   -5.9351    3.8235   28.3993 F   0  0  0  0  0  0  0  0  0  0  0  0
  -12.2836    1.4546   20.4238 C   0  0  0  0  0  0  0  0  0  0  0  0
  -11.8878    0.4420   19.6796 C   0  0  0  0  0  0  0  0  0  0  0  0
  -10.9277   -0.5318   20.3142 C   0  0  0  0  0  0  0  0  0  0  0  0
  -10.4024   -0.2948   21.5873 C   0  0  0  0  0  0  0  0  0  0  0  0
  -10.6368   -1.7944   19.6036 C   0  0  0  0  0  0  0  0  0  0  0  0
   -9.7125   -2.5015   20.2159 C   0  0  0  0  0  0  0  0  0  0  0  0
   -9.1266   -2.3197   21.4517 C   0  0  0  0  0  0  0  0  0  0  0  0
   -9.4321   -1.1814   22.1305 C   0  0  0  0  0  0  0  0  0  0  0  0
  -12.4117    0.1787   18.3700 C   0  0  0  0  0  0  0  0  0  0  0  0
  -13.3285    0.9603   17.9456 C   0  0  0  0  0  0  0  0  0  0  0  0
  -13.7320    2.0932   18.7346 C   0  0  0  0  0  0  0  0  0  0  0  0
  -13.1526    2.4231   19.9031 C   0  0  0  0  0  0  0  0  0  0  0  0
  -11.1132   -2.0092   18.4760 O   0  0  0  0  0  0  0  0  0  0  0  0
  1  4  1  0
  5  8  1  0
  4 14  1  6
  4 15  1  0
 18 20  1  0
 20 21  1  0
 19 23  1  0
 22 23  1  0
 20 28  2  0
 22 21  1  0
  1  2  2  0
  2  3  1  0
  3  5  2  0
  5  6  1  0
  6  7  2  0
  7  1  1  0
 11 16  2  0
 17 18  2  0
 18 19  1  0
 19 10  2  0
 16 17  1  0
 17 24  1  0
 24 25  2  0
 25 26  1  0
 26 27  2  0
 27 16  1  0
  8  9  2  0
  9 10  1  0
 10 11  1  0
 11 13  1  0
 13 12  2  0
 12  8  1  0
M  END
$$$$
