No_1870-complexes_sdf/6BKW-FPZ/2024-09-17-14-21-01/
     RDKit          3D

 11 11  0  0  0  0  0  0  0  0999 V2000
   -7.7129    4.2099   27.0854 C   0  0  0  0  0  0  0  0  0  0  0  0
   -7.7814    5.1722   27.8972 C   0  0  0  0  0  0  0  0  0  0  0  0
   -7.3155    2.9699   27.6145 C   0  0  0  0  0  0  0  0  0  0  0  0
   -6.0554    2.7539   27.5147 C   0  0  0  0  0  0  0  0  0  0  0  0
   -5.4642    1.4850   27.9980 C   0  0  0  0  0  0  0  0  0  0  0  0
   -8.2273    6.5427   27.4044 C   0  0  0  0  0  0  0  0  0  0  0  0
   -6.2219    0.3468   28.0080 C   0  0  0  0  0  0  0  0  0  0  0  0
   -8.9371    6.5995   26.2305 C   0  0  0  0  0  0  0  0  0  0  0  0
   -5.6668   -0.8435   28.4086 C   0  0  0  0  0  0  0  0  0  0  0  0
   -8.5577    4.2697   25.9067 C   0  0  0  0  0  0  0  0  0  0  0  0
   -9.2001    5.4447   25.5590 C   0  0  0  0  0  0  0  0  0  0  0  0
  1  3  1  0
  3  4  2  3
  4  5  1  0
  5  7  2  3
  7  9  1  0
  1  2  2  0
  2  6  1  0
  6  8  2  0
  8 11  1  0
 11 10  2  0
 10  1  1  0
M  END
$$$$
