No_1170-complexes_sdf/6BKW-FPZ/2024-09-17-14-21-01/
     RDKit          3D

 13 13  0  0  0  0  0  0  0  0999 V2000
   -7.9040    3.9820   27.1177 C   0  0  0  0  0  0  0  0  0  0  0  0
   -7.8663    4.8694   27.9238 C   0  0  0  0  0  0  0  0  0  0  0  0
   -9.0501    3.8017   26.2617 C   0  0  0  0  0  0  0  0  0  0  0  0
  -10.0189    4.7608   26.3707 C   0  0  0  0  0  0  0  0  0  0  0  0
   -8.6770    5.9780   27.9222 C   0  0  0  0  0  0  0  0  0  0  0  0
   -9.8040    5.8752   27.0958 C   0  0  0  0  0  0  0  0  0  0  0  0
   -9.1687    2.4383   25.2734 Cl  0  0  0  0  0  0  0  0  0  0  0  0
   -6.9905    2.9010   27.1299 O   0  0  0  0  0  0  0  0  0  0  0  0
   -6.1033    2.8719   28.0967 C   0  0  0  0  0  0  0  0  0  0  0  0
   -4.8352    2.0100   27.5762 C   0  0  0  0  0  0  0  0  0  0  0  0
   -5.1616    1.0090   27.6480 F   0  0  0  0  0  0  0  0  0  0  0  0
   -4.2444    2.4382   26.4985 F   0  0  0  0  0  0  0  0  0  0  0  0
  -11.0169    4.7483   25.5116 F   0  0  0  0  0  0  0  0  0  0  0  0
  3  7  1  0
  1  8  1  0
  8  9  1  0
  9 10  2  3
 10 11  1  0
 10 12  1  0
  4 13  1  0
  1  2  2  0
  2  5  1  0
  5  6  2  0
  6  4  1  0
  4  3  2  0
  3  1  1  0
M  END
$$$$
