No_1748-complexes_sdf/6BKW-FPZ/2024-09-17-14-21-01/
     RDKit          3D

 20 22  0  0  0  0  0  0  0  0999 V2000
   -7.2496    3.8871   27.4508 C   0  0  0  0  0  0  0  0  0  0  0  0
   -8.5096    4.0291   27.2770 C   0  0  0  0  0  0  0  0  0  0  0  0
   -9.2677    5.1714   27.5773 C   0  0  0  0  0  0  0  0  0  0  0  0
   -9.2765    2.8248   26.8371 C   0  0  0  0  0  0  0  0  0  0  0  0
  -10.4623    3.0171   26.3236 C   0  0  0  0  0  0  0  0  0  0  0  0
  -11.3015    3.9610   26.8543 C   0  0  2  0  0  0  0  0  0  0  0  0
  -12.7677    4.0804   26.5145 C   0  0  0  0  0  0  0  0  0  0  0  0
  -10.7669    5.1475   27.5187 C   0  0  0  0  0  0  0  0  0  0  0  0
   -6.5876    2.6817   27.4133 N   0  0  0  0  0  0  0  0  0  0  0  0
   -7.1739    1.5552   27.0772 C   0  0  0  0  0  0  0  0  0  0  0  0
   -8.5524    1.6712   26.6419 C   0  0  0  0  0  0  0  0  0  0  0  0
  -13.4014    2.9986   26.8931 C   0  0  0  0  0  0  0  0  0  0  0  0
  -12.8792    2.0763   27.6388 C   0  0  0  0  0  0  0  0  0  0  0  0
  -12.3787    2.2115   28.7757 C   0  0  0  0  0  0  0  0  0  0  0  0
  -12.8562    0.6441   27.1843 C   0  0  0  0  0  0  0  0  0  0  0  0
  -13.1663    0.3179   26.0374 C   0  0  0  0  0  0  0  0  0  0  0  0
  -12.3291   -0.4323   28.0987 C   0  0  0  0  0  0  0  0  0  0  0  0
  -11.7011   -1.3449   27.6510 C   0  0  0  0  0  0  0  0  0  0  0  0
  -12.7798   -0.9911   25.5145 C   0  0  0  0  0  0  0  0  0  0  0  0
  -12.0943   -1.8527   26.3292 C   0  0  0  0  0  0  0  0  0  0  0  0
  2  3  1  0
  4  5  1  0
  5  6  1  0
  6  7  1  6
  3  8  1  0
  6  8  1  0
  7 12  1  0
 12 13  1  0
 13 14  2  0
 13 15  1  0
  1  2  2  0
  2  4  1  0
  4 11  2  0
 11 10  1  0
 10  9  2  0
  9  1  1  0
 15 16  2  0
 16 19  1  0
 19 20  2  0
 20 18  1  0
 18 17  2  0
 17 15  1  0
M  END
$$$$
