No_1452-complexes_sdf/6BKW-FPZ/2024-09-17-14-21-01/
     RDKit          3D

 20 22  0  0  0  0  0  0  0  0999 V2000
   -7.2496    3.8871   27.4508 C   0  0  0  0  0  0  0  0  0  0  0  0
   -7.6161    2.7143   27.1523 C   0  0  0  0  0  0  0  0  0  0  0  0
   -8.8302    2.4659   26.5056 C   0  0  0  0  0  0  0  0  0  0  0  0
   -8.1584    5.0090   27.3234 C   0  0  0  0  0  0  0  0  0  0  0  0
   -9.3788    4.7965   26.7695 C   0  0  0  0  0  0  0  0  0  0  0  0
   -9.7028    3.5649   26.3276 C   0  0  0  0  0  0  0  0  0  0  0  0
   -6.7813    1.6452   27.3678 O   0  0  0  0  0  0  0  0  0  0  0  0
   -7.0170    0.3970   26.9540 C   0  0  0  0  0  0  0  0  0  0  0  0
   -6.3487   -0.5120   26.9616 C   0  0  0  0  0  0  0  0  0  0  0  0
   -8.4372    0.1651   26.6405 C   0  0  0  0  0  0  0  0  0  0  0  0
   -9.2674    1.1860   26.2715 C   0  0  0  0  0  0  0  0  0  0  0  0
   -7.7038    6.3663   27.7955 C   0  0  0  0  0  0  0  0  0  0  0  0
   -4.9827   -0.2994   27.6465 C   0  0  0  0  0  0  0  0  0  0  0  0
   -3.9180   -1.2567   27.6706 C   0  0  0  0  0  0  0  0  0  0  0  0
   -2.7042   -0.9197   28.2942 C   0  0  0  0  0  0  0  0  0  0  0  0
   -2.5641    0.3338   28.9202 C   0  0  0  0  0  0  0  0  0  0  0  0
   -3.6953    1.1963   28.9981 C   0  0  0  0  0  0  0  0  0  0  0  0
   -4.8202    0.8832   28.3657 C   0  0  0  0  0  0  0  0  0  0  0  0
   -6.6907    6.5312   28.2452 N   0  0  0  0  0  0  0  0  0  0  0  0
   -8.4827    7.3700   27.2929 N   0  0  0  0  0  0  0  0  0  0  0  0
  2  7  1  0
  7  8  1  0
  8  9  2  3
  8 10  1  0
  3 11  1  0
 10 11  2  0
  4 12  1  0
  9 13  1  0
 12 19  1  0
 12 20  2  0
 13 14  2  0
 14 15  1  0
 15 16  2  0
 16 17  1  0
 17 18  2  0
 18 13  1  0
  1  2  2  0
  2  3  1  0
  3  6  2  0
  6  5  1  0
  5  4  2  0
  4  1  1  0
M  END
$$$$
