No_1616-complexes_sdf/6BKW-FPZ/2024-09-17-14-21-01/
     RDKit          3D

 20 22  0  0  0  0  0  0  0  0999 V2000
   -7.9040    3.9820   27.1177 C   0  0  0  0  0  0  0  0  0  0  0  0
   -8.2057    2.8231   26.8733 C   0  0  0  0  0  0  0  0  0  0  0  0
   -8.7695    5.0740   26.7916 C   0  0  0  0  0  0  0  0  0  0  0  0
   -8.4337    6.4678   27.0913 C   0  0  0  0  0  0  0  0  0  0  0  0
   -9.3742    2.4311   26.2346 C   0  0  0  0  0  0  0  0  0  0  0  0
  -10.2395    3.4267   25.8887 C   0  0  0  0  0  0  0  0  0  0  0  0
   -9.9567    4.7548   26.1374 C   0  0  0  0  0  0  0  0  0  0  0  0
   -7.9449    7.5014   26.9590 N   0  0  0  0  0  0  0  0  0  0  0  0
   -7.4536    1.5358   27.2327 C   0  0  0  0  0  0  0  0  0  0  0  0
   -6.1351    1.7877   27.7963 C   0  0  0  0  0  0  0  0  0  0  0  0
   -5.3219    0.6620   28.1648 C   0  0  0  0  0  0  0  0  0  0  0  0
   -5.8406   -0.5844   27.9871 C   0  0  2  0  0  0  0  0  0  0  0  0
   -7.4857    0.1441   27.2444 C   0  0  1  0  0  0  0  0  0  0  0  0
   -7.9076   -0.9937   27.1248 N   0  0  0  0  0  0  0  0  0  0  0  0
   -7.3921   -2.0341   27.4335 C   0  0  0  0  0  0  0  0  0  0  0  0
   -6.1241   -1.9147   27.9885 C   0  0  1  0  0  0  0  0  0  0  0  0
   -3.8973    0.8428   28.7735 C   0  0  0  0  0  0  0  0  0  0  0  0
   -3.6834    0.4589   29.8837 O   0  0  0  0  0  0  0  0  0  0  0  0
   -2.9891    1.2128   27.9159 O   0  0  0  0  0  0  0  0  0  0  0  0
   -5.0226   -2.6698   27.4094 C   0  0  0  0  0  0  0  0  0  0  0  0
  3  4  1  0
  4  8  3  0
  2  9  1  0
  9 10  1  0
 10 11  2  0
 12 11  1  1
 13  9  1  1
 12 13  1  0
 13 14  1  0
 14 15  2  0
 12 16  1  0
 15 16  1  0
 11 17  1  0
 17 18  1  0
 17 19  2  0
 16 20  1  6
  1  2  2  0
  2  5  1  0
  5  6  2  0
  6  7  1  0
  7  3  2  0
  3  1  1  0
M  END
$$$$
