No_1391-complexes_sdf/6BKW-FPZ/2024-09-17-14-21-01/
     RDKit          3D

 31 35  0  0  0  0  0  0  0  0999 V2000
   -7.7129    4.2099   27.0854 C   0  0  0  0  0  0  0  0  0  0  0  0
   -8.2112    3.0637   26.9225 C   0  0  0  0  0  0  0  0  0  0  0  0
   -7.5138    1.9223   27.4249 C   0  0  0  0  0  0  0  0  0  0  0  0
   -8.5309    5.4147   26.8151 C   0  0  0  0  0  0  0  0  0  0  0  0
   -9.6817    5.2393   26.1100 C   0  0  0  0  0  0  0  0  0  0  0  0
  -10.1032    3.9957   25.8534 C   0  0  0  0  0  0  0  0  0  0  0  0
   -9.4034    2.8430   26.2573 C   0  0  0  0  0  0  0  0  0  0  0  0
   -6.1481    1.9922   27.8210 C   0  0  0  0  0  0  0  0  0  0  0  0
   -5.4897    0.8126   28.2236 C   0  0  0  0  0  0  0  0  0  0  0  0
   -4.1420    0.8345   28.6994 C   0  0  0  0  0  0  0  0  0  0  0  0
   -6.2006   -0.4257   28.1063 C   0  0  0  0  0  0  0  0  0  0  0  0
   -7.4999   -0.4840   27.6791 C   0  0  0  0  0  0  0  0  0  0  0  0
   -8.1298    0.6624   27.2868 C   0  0  0  0  0  0  0  0  0  0  0  0
   -3.5981   -0.2070   29.4235 C   0  0  0  0  0  0  0  0  0  0  0  0
   -4.1185   -1.3922   29.4734 C   0  0  0  0  0  0  0  0  0  0  0  0
   -5.4998   -1.5291   28.9000 C   0  0  0  0  0  0  0  0  0  0  0  0
   -7.9795    6.7650   27.0909 C   0  0  0  0  0  0  0  0  0  0  0  0
   -8.6509    7.8569   26.7200 N   0  0  0  0  0  0  0  0  0  0  0  0
   -6.8933    6.8625   27.7709 O   0  0  0  0  0  0  0  0  0  0  0  0
   -3.5587   -2.5509   30.1234 C   0  0  0  0  0  0  0  0  0  0  0  0
   -2.5334   -2.6198   30.2487 C   0  0  0  0  0  0  0  0  0  0  0  0
   -1.8185   -3.7709   30.9131 C   0  0  0  0  0  0  0  0  0  0  0  0
   -2.6375   -4.7999   31.2495 C   0  0  0  0  0  0  0  0  0  0  0  0
   -4.5298   -3.4955   30.6115 C   0  0  0  0  0  0  0  0  0  0  0  0
   -3.9877   -4.6570   31.1748 C   0  0  0  0  0  0  0  0  0  0  0  0
  -11.3674    3.8521   25.0753 C   0  0  0  0  0  0  0  0  0  0  0  0
  -11.2773    3.1735   23.8767 C   0  0  0  0  0  0  0  0  0  0  0  0
  -12.1528    3.2700   22.9732 C   0  0  0  0  0  0  0  0  0  0  0  0
  -13.3638    4.0812   23.2493 C   0  0  0  0  0  0  0  0  0  0  0  0
  -13.4771    4.6880   24.4926 C   0  0  0  0  0  0  0  0  0  0  0  0
  -12.4187    4.6325   25.3744 C   0  0  0  0  0  0  0  0  0  0  0  0
  2  3  1  0
  4 17  1  0
 17 18  2  0
 17 19  1  0
 15 20  1  0
  6 26  1  0
  9 10  2  0
 10 14  1  0
 14 15  2  0
 15 16  1  0
 16 11  2  0
  1  2  2  0
  2  7  1  0
  7  6  2  0
  6  5  1  0
  5  4  2  0
  4  1  1  0
  3  8  2  0
  8  9  1  0
  9 11  1  0
 11 12  1  0
 12 13  2  0
 13  3  1  0
 20 21  2  0
 21 22  1  0
 22 23  2  0
 23 25  1  0
 25 24  2  0
 24 20  1  0
 26 27  2  0
 27 28  1  0
 28 29  2  0
 29 30  1  0
 30 31  2  0
 31 26  1  0
M  END
$$$$
