No_1041-complexes_sdf/6BKW-FPZ/2024-09-17-14-21-01/
     RDKit          3D

 15 15  0  0  0  0  0  0  0  0999 V2000
   -7.7129    4.2099   27.0854 C   0  0  0  0  0  0  0  0  0  0  0  0
   -8.9133    4.4736   27.0998 C   0  0  0  0  0  0  0  0  0  0  0  0
   -9.4643    5.5426   27.7628 C   0  0  0  0  0  0  0  0  0  0  0  0
   -9.8091    3.6358   26.2841 C   0  0  0  0  0  0  0  0  0  0  0  0
   -9.4101    2.5938   25.7918 C   0  0  0  0  0  0  0  0  0  0  0  0
   -7.2012    2.8508   26.8768 C   0  0  0  0  0  0  0  0  0  0  0  0
   -8.0866    2.0216   26.2188 C   0  0  0  0  0  0  0  0  0  0  0  0
   -7.6585    0.6881   25.8174 C   0  0  0  0  0  0  0  0  0  0  0  0
   -8.2955   -0.2414   26.2159 O   0  0  0  0  0  0  0  0  0  0  0  0
   -6.8353    4.9744   28.1396 C   0  0  0  0  0  0  0  0  0  0  0  0
   -6.4463    0.4698   25.5816 O   0  0  0  0  0  0  0  0  0  0  0  0
  -10.3752    5.4867   28.6235 F   0  0  0  0  0  0  0  0  0  0  0  0
   -8.4865    6.1987   28.5149 F   0  0  0  0  0  0  0  0  0  0  0  0
   -9.9653    6.4047   26.8395 F   0  0  0  0  0  0  0  0  0  0  0  0
   -5.5690    4.5865   28.2816 N   0  0  0  0  0  0  0  0  0  0  0  0
  2  3  1  0
  7  8  1  0
  8  9  2  0
  1 10  1  0
  8 11  1  0
  3 12  1  0
  3 13  1  0
  3 14  1  0
 10 15  1  0
  1  2  2  0
  2  4  1  0
  4  5  2  0
  5  7  1  0
  7  6  2  0
  6  1  1  0
M  END
$$$$
