No_1743-complexes_sdf/6BKW-FPZ/2024-09-17-14-21-01/
     RDKit          3D

 26 29  0  0  0  0  0  0  0  0999 V2000
   -7.2496    3.8871   27.4508 C   0  0  0  0  0  0  0  0  0  0  0  0
   -7.9379    4.9063   27.8518 C   0  0  0  0  0  0  0  0  0  0  0  0
   -7.5112    6.1898   27.6280 C   0  0  0  0  0  0  0  0  0  0  0  0
   -7.4783    2.5435   27.5904 C   0  0  2  0  0  0  0  0  0  0  0  0
   -6.6064    1.5370   27.1750 C   0  0  0  0  0  0  0  0  0  0  0  0
   -7.1002    0.3229   27.0179 C   0  0  0  0  0  0  0  0  0  0  0  0
   -8.4578    0.1338   27.2073 C   0  0  0  0  0  0  0  0  0  0  0  0
   -8.7952    1.9435   27.4675 C   0  0  0  0  0  0  0  0  0  0  0  0
   -8.0674    7.2764   26.8149 C   0  0  0  0  0  0  0  0  0  0  0  0
   -9.3971    7.1571   26.3841 C   0  0  0  0  0  0  0  0  0  0  0  0
   -9.9726    5.9020   26.7020 C   0  0  0  0  0  0  0  0  0  0  0  0
   -9.4219    4.7829   27.6236 C   0  0  0  0  0  0  0  0  0  0  0  0
   -9.4883   -0.7099   27.1897 C   0  0  2  0  0  0  0  0  0  0  0  0
  -10.7790   -0.4017   27.0468 C   0  0  0  0  0  0  0  0  0  0  0  0
  -11.2743    0.3325   26.2674 C   0  0  0  0  0  0  0  0  0  0  0  0
  -12.7368    0.6410   26.2232 C   0  0  0  0  0  0  0  0  0  0  0  0
  -13.4943    0.0609   27.1874 C   0  0  0  0  0  0  0  0  0  0  0  0
  -13.0137   -0.7601   28.1538 C   0  0  0  0  0  0  0  0  0  0  0  0
  -11.6360   -1.0191   28.2046 C   0  0  0  0  0  0  0  0  0  0  0  0
   -9.0079   -2.0593   27.4529 C   0  0  0  0  0  0  0  0  0  0  0  0
   -8.4406   -2.7418   26.5139 C   0  0  0  0  0  0  0  0  0  0  0  0
   -8.2686   -2.1644   25.2070 C   0  0  0  0  0  0  0  0  0  0  0  0
   -7.6563   -2.9429   24.1893 C   0  0  0  0  0  0  0  0  0  0  0  0
   -7.1112   -4.0965   24.5737 C   0  0  0  0  0  0  0  0  0  0  0  0
   -7.2366   -4.6617   25.8067 C   0  0  0  0  0  0  0  0  0  0  0  0
   -7.8765   -4.0005   26.7954 C   0  0  0  0  0  0  0  0  0  0  0  0
  1  2  1  0
  4  1  1  6
  4  5  1  0
  5  6  2  0
  6  7  1  0
  4  8  1  0
  7  8  2  0
  7 13  1  0
 13 14  1  0
 13 20  1  1
 20 21  1  0
 14 15  2  0
 15 16  1  0
 16 17  2  0
 17 18  1  0
 18 19  2  0
 19 14  1  0
  2  3  2  0
  3  9  1  0
  9 10  2  0
 10 11  1  0
 11 12  2  0
 12  2  1  0
 21 22  2  0
 22 23  1  0
 23 24  2  0
 24 25  1  0
 25 26  2  0
 26 21  1  0
M  END
$$$$
