No_1234-complexes_sdf/6BKW-FPZ/2024-09-17-14-21-01/
     RDKit          3D

 21 23  0  0  0  0  0  0  0  0999 V2000
   -7.2496    3.8871   27.4508 C   0  0  0  0  0  0  0  0  0  0  0  0
   -7.6161    2.7143   27.1523 C   0  0  0  0  0  0  0  0  0  0  0  0
   -7.1618    1.8631   27.5233 C   0  0  0  0  0  0  0  0  0  0  0  0
   -8.0036    5.1085   27.2100 C   0  0  0  0  0  0  0  0  0  0  0  0
   -9.0765    5.1561   26.4023 C   0  0  0  0  0  0  0  0  0  0  0  0
   -9.5423    3.9740   25.8512 C   0  0  0  0  0  0  0  0  0  0  0  0
   -8.8464    2.7352   26.2620 C   0  0  0  0  0  0  0  0  0  0  0  0
   -7.5745    0.4314   27.2995 C   0  0  0  0  0  0  0  0  0  0  0  0
   -8.7724    0.3253   26.5754 C   0  0  0  0  0  0  0  0  0  0  0  0
   -9.4214    1.4875   25.9819 C   0  0  0  0  0  0  0  0  0  0  0  0
   -7.4545    6.4163   27.8250 C   0  0  0  0  0  0  0  0  0  0  0  0
  -10.6026    3.9359   24.9125 C   0  0  0  0  0  0  0  0  0  0  0  0
  -10.4537    4.2218   23.5910 C   0  0  0  0  0  0  0  0  0  0  0  0
  -11.8959    3.5994   25.3584 C   0  0  0  0  0  0  0  0  0  0  0  0
  -11.4123    4.2542   22.6117 C   0  0  0  0  0  0  0  0  0  0  0  0
  -12.9701    3.6219   24.4849 C   0  0  0  0  0  0  0  0  0  0  0  0
  -12.7353    4.0088   23.1665 C   0  0  0  0  0  0  0  0  0  0  0  0
   -9.2939   -1.0072   26.2457 C   0  0  0  0  0  0  0  0  0  0  0  0
   -8.8471   -1.9302   25.8377 C   0  0  0  0  0  0  0  0  0  0  0  0
   -7.3989   -1.8273   25.4579 C   0  0  0  0  0  0  0  0  0  0  0  0
   -6.7380   -2.3459   24.8894 C   0  0  0  0  0  0  0  0  0  0  0  0
  4 11  1  0
  6 12  1  0
  9 18  1  0
 18 19  2  3
 19 20  1  0
 20 21  3  0
  1  2  2  0
  7  6  2  0
  6  5  1  0
  5  4  2  0
  4  1  1  0
 12 13  2  0
 13 15  1  0
 15 17  2  0
 17 16  1  0
 16 14  2  0
 14 12  1  0
  2  3  1  0
  3  8  2  0
  8  9  1  0
  9 10  2  0
 10  7  1  0
  7  2  1  0
M  END
$$$$
