No_1738-complexes_sdf/6BKW-FPZ/2024-09-17-14-21-01/
     RDKit          3D

 27 29  0  0  0  0  0  0  0  0999 V2000
   -7.9040    3.9820   27.1177 C   0  0  0  0  0  0  0  0  0  0  0  0
   -7.8663    4.8694   27.9238 C   0  0  0  0  0  0  0  0  0  0  0  0
   -9.0491    3.8523   26.2542 C   0  0  0  0  0  0  0  0  0  0  0  0
   -8.7661    5.9491   27.9690 C   0  0  0  0  0  0  0  0  0  0  0  0
   -9.9295    4.8502   26.2323 C   0  0  0  0  0  0  0  0  0  0  0  0
   -9.8077    5.9288   27.0933 C   0  0  0  0  0  0  0  0  0  0  0  0
   -6.9606    2.7994   27.1981 C   0  0  0  0  0  0  0  0  0  0  0  0
   -7.3628    1.4634   26.8684 C   0  0  0  0  0  0  0  0  0  0  0  0
   -8.6728    1.2673   26.4162 C   0  0  1  0  0  0  0  0  0  0  0  0
   -9.4516    2.4950   25.8033 C   0  0  1  0  0  0  0  0  0  0  0  0
  -10.4042    2.3269   24.8526 C   0  0  0  0  0  0  0  0  0  0  0  0
   -8.6969    2.7988   25.0144 F   0  0  0  0  0  0  0  0  0  0  0  0
   -9.2615   -0.0334   26.2774 C   0  0  0  0  0  0  0  0  0  0  0  0
   -9.3307    1.5347   27.7413 C   0  0  0  0  0  0  0  0  0  0  0  0
  -11.6492    2.6418   25.3331 C   0  0  0  0  0  0  0  0  0  0  0  0
   -8.4394   -0.7685   25.3933 C   0  0  0  0  0  0  0  0  0  0  0  0
  -10.4236    1.7254   23.5837 C   0  0  0  0  0  0  0  0  0  0  0  0
   -7.6911    1.0403   25.6104 F   0  0  0  0  0  0  0  0  0  0  0  0
   -6.4934    0.4543   27.4023 C   0  0  0  0  0  0  0  0  0  0  0  0
  -12.7943    2.3457   24.6622 C   0  0  0  0  0  0  0  0  0  0  0  0
  -11.4841    1.5018   22.8493 C   0  0  0  0  0  0  0  0  0  0  0  0
  -14.1075    2.6542   25.1765 C   0  0  0  0  0  0  0  0  0  0  0  0
  -12.6795    1.8086   23.3884 C   0  0  0  0  0  0  0  0  0  0  0  0
  -10.4585   -0.4609   26.6561 C   0  0  0  0  0  0  0  0  0  0  0  0
   -9.1349   -2.1336   25.0885 C   0  0  0  0  0  0  0  0  0  0  0  0
  -11.0431   -1.7003   26.3372 C   0  0  0  0  0  0  0  0  0  0  0  0
  -10.3198   -2.4705   25.5316 C   0  0  0  0  0  0  0  0  0  0  0  0
  1  7  1  0
  7  8  2  3
  8  9  1  0
  3 10  1  0
 10 11  1  0
 10 12  1  6
  9 13  1  0
  9 14  1  6
  9 18  1  0
  8 19  1  0
 20 22  1  0
 11 15  2  0
 15 20  1  0
 20 23  2  0
 23 21  1  0
 21 17  2  0
 17 11  1  0
  1  2  2  0
  2  4  1  0
  4  6  2  0
  6  5  1  0
  5  3  2  0
  3  1  1  0
 13 16  2  0
 16 25  1  0
 25 27  2  0
 27 26  1  0
 26 24  2  0
 24 13  1  0
M  END
$$$$
