No_164-complexes_sdf/6BKW-FPZ/2024-09-17-14-21-01/
     RDKit          3D

 30 35  0  0  0  0  0  0  0  0999 V2000
   -7.9040    3.9820   27.1177 C   0  0  0  0  0  0  0  0  0  0  0  0
   -8.2057    2.8231   26.8733 C   0  0  0  0  0  0  0  0  0  0  0  0
   -7.4766    1.7477   27.4593 C   0  0  0  0  0  0  0  0  0  0  0  0
   -8.7468    5.1251   26.6967 C   0  0  0  0  0  0  0  0  0  0  0  0
   -9.7234    4.8589   25.8202 C   0  0  0  0  0  0  0  0  0  0  0  0
   -9.9711    3.5858   25.4266 C   0  0  0  0  0  0  0  0  0  0  0  0
   -9.2266    2.4957   25.9600 C   0  0  0  0  0  0  0  0  0  0  0  0
   -7.8394    0.3721   27.3404 C   0  0  0  0  0  0  0  0  0  0  0  0
   -8.9869    0.1878   26.4476 C   0  0  0  0  0  0  0  0  0  0  0  0
   -9.6379    1.1710   25.7653 C   0  0  0  0  0  0  0  0  0  0  0  0
   -8.3911    6.5360   27.0721 C   0  0  0  0  0  0  0  0  0  0  0  0
   -8.0648    6.7626   28.2473 O   0  0  0  0  0  0  0  0  0  0  0  0
   -8.8807    7.5538   26.3768 O   0  0  0  0  0  0  0  0  0  0  0  0
   -7.1511   -0.6645   27.9976 C   0  0  0  0  0  0  0  0  0  0  0  0
   -5.8582   -0.4772   28.4381 C   0  0  0  0  0  0  0  0  0  0  0  0
   -5.0497   -1.1491   28.9488 C   0  0  0  0  0  0  0  0  0  0  0  0
   -5.3387   -2.4383   29.3667 C   0  0  0  0  0  0  0  0  0  0  0  0
   -6.7009   -2.7876   29.0252 C   0  0  0  0  0  0  0  0  0  0  0  0
   -7.5797   -1.9464   28.3836 C   0  0  0  0  0  0  0  0  0  0  0  0
   -3.6110   -0.8974   29.4256 C   0  0  2  0  0  0  0  0  0  0  0  0
   -3.0638    0.2577   28.7901 C   0  0  0  0  0  0  0  0  0  0  0  0
   -3.9232    1.1932   28.1640 C   0  0  0  0  0  0  0  0  0  0  0  0
   -5.1600    0.9004   27.8968 C   0  0  2  0  0  0  0  0  0  0  0  0
   -6.1563    1.9043   27.4111 C   0  0  0  0  0  0  0  0  0  0  0  0
   -2.6336   -1.9444   30.2675 Cl  0  0  0  0  0  0  0  0  0  0  0  0
  -10.6980    0.7920   24.8788 C   0  0  0  0  0  0  0  0  0  0  0  0
  -10.4304   -0.2346   24.0626 C   0  0  0  0  0  0  0  0  0  0  0  0
   -9.9564   -1.1924   24.1436 C   0  0  0  0  0  0  0  0  0  0  0  0
   -8.9613   -1.7263   25.1742 C   0  0  0  0  0  0  0  0  0  0  0  0
   -8.2742   -0.9009   25.8755 C   0  0  0  0  0  0  0  0  0  0  0  0
  1  2  2  0
  2  3  1  0
  1  4  1  0
  4  5  2  0
  5  6  1  0
  2  7  1  0
  6  7  2  0
  3  8  2  0
  8  9  1  0
  7 10  1  0
  9 10  2  0
  4 11  1  0
 11 12  1  0
 11 13  2  0
  8 14  1  0
 14 15  2  0
 15 16  1  0
 16 17  2  0
 17 18  1  0
 14 19  1  0
 18 19  2  0
 16 20  1  0
 20 21  1  0
 21 22  2  0
 15 23  1  0
 22 23  1  0
  3 24  1  0
 23 24  1  1
 20 25  1  6
 10 26  1  0
 26 27  1  0
 27 28  2  0
 28 29  1  0
  9 30  1  0
 29 30  2  0
M  END
$$$$
