No_1089-complexes_sdf/6BKW-FPZ/2024-09-17-14-21-01/
     RDKit          3D

 34 37  0  0  0  0  0  0  0  0999 V2000
   -7.7129    4.2099   27.0854 C   0  0  0  0  0  0  0  0  0  0  0  0
   -7.7814    5.1722   27.8972 C   0  0  0  0  0  0  0  0  0  0  0  0
   -8.8998    3.8713   26.3707 C   0  0  0  0  0  0  0  0  0  0  0  0
   -9.9938    4.6774   26.5446 C   0  0  0  0  0  0  0  0  0  0  0  0
   -8.7789    6.1536   27.9256 C   0  0  0  0  0  0  0  0  0  0  0  0
   -9.9428    5.8398   27.2296 C   0  0  0  0  0  0  0  0  0  0  0  0
   -8.9119    2.6447   25.5685 C   0  0  0  0  0  0  0  0  0  0  0  0
   -8.3051    1.4797   26.1124 C   0  0  0  0  0  0  0  0  0  0  0  0
   -8.3280    0.2840   25.4321 C   0  0  0  0  0  0  0  0  0  0  0  0
   -8.9436    0.2972   24.1720 C   0  0  0  0  0  0  0  0  0  0  0  0
   -9.5220    1.4369   23.6213 C   0  0  0  0  0  0  0  0  0  0  0  0
   -9.4876    2.5948   24.3374 C   0  0  0  0  0  0  0  0  0  0  0  0
  -10.1278    1.3961   22.2987 C   0  0  0  0  0  0  0  0  0  0  0  0
  -10.3610    2.5385   21.6840 C   0  0  0  0  0  0  0  0  0  0  0  0
  -10.9553    2.5778   20.4025 C   0  0  0  0  0  0  0  0  0  0  0  0
  -11.2761    1.3681   19.7621 C   0  0  0  0  0  0  0  0  0  0  0  0
  -10.9815    0.1655   20.3955 C   0  0  0  0  0  0  0  0  0  0  0  0
  -10.4124    0.1820   21.6587 C   0  0  0  0  0  0  0  0  0  0  0  0
   -6.6507    5.5847   28.5982 F   0  0  0  0  0  0  0  0  0  0  0  0
  -11.4126   -0.9378   19.5658 C   0  0  0  0  0  0  0  0  0  0  0  0
  -10.6892   -1.9356   19.6401 F   0  0  0  0  0  0  0  0  0  0  0  0
  -11.5021   -0.5603   18.2725 F   0  0  0  0  0  0  0  0  0  0  0  0
  -12.6480   -1.2646   19.9850 F   0  0  0  0  0  0  0  0  0  0  0  0
  -11.2229    3.8642   19.7482 C   0  0  0  0  0  0  0  0  0  0  0  0
   -7.6743   -0.8813   25.9654 C   0  0  0  0  0  0  0  0  0  0  0  0
   -6.4645   -0.9450   26.0889 C   0  0  0  0  0  0  0  0  0  0  0  0
   -5.7088   -2.0658   26.7245 C   0  0  0  0  0  0  0  0  0  0  0  0
   -6.4697   -3.0918   27.1576 C   0  0  0  0  0  0  0  0  0  0  0  0
   -8.4816   -1.9589   26.3875 C   0  0  0  0  0  0  0  0  0  0  0  0
   -7.9402   -2.8656   26.9947 C   0  0  0  0  0  0  0  0  0  0  0  0
   -3.8547   -2.0421   26.8711 Br  0  0  0  0  0  0  0  0  0  0  0  0
   -8.7382   -4.0978   27.5405 C   0  0  0  0  0  0  0  0  0  0  0  0
   -9.7920   -4.2457   27.3551 O   0  0  0  0  0  0  0  0  0  0  0  0
   -8.1049   -4.9631   28.3448 F   0  0  0  0  0  0  0  0  0  0  0  0
  3  7  1  0
 11 13  1  0
  2 19  1  0
 17 20  1  0
 20 21  1  0
 20 22  1  0
 20 23  1  0
 15 24  1  0
  9 25  1  0
 27 31  1  0
 30 32  1  0
 32 33  2  0
 32 34  1  0
 13 14  2  0
 14 15  1  0
 15 16  2  0
 16 17  1  0
 17 18  2  0
 18 13  1  0
 25 26  2  0
 26 27  1  0
 27 28  2  0
 28 30  1  0
 30 29  2  0
 29 25  1  0
  1  2  2  0
  2  5  1  0
  5  6  2  0
  6  4  1  0
  4  3  2  0
  3  1  1  0
  7  8  2  0
  8  9  1  0
  9 10  2  0
 10 11  1  0
 11 12  2  0
 12  7  1  0
M  END
$$$$
