No_1885-complexes_sdf/6BKW-FPZ/2024-09-17-14-21-01/
     RDKit          3D

 23 25  0  0  0  0  0  0  0  0999 V2000
   -7.7129    4.2099   27.0854 C   0  0  0  0  0  0  0  0  0  0  0  0
   -8.2112    3.0637   26.9225 C   0  0  0  0  0  0  0  0  0  0  0  0
   -8.5108    5.3904   26.9436 C   0  0  0  0  0  0  0  0  0  0  0  0
   -9.5333    5.2878   26.5026 C   0  0  0  0  0  0  0  0  0  0  0  0
   -9.5076    2.8934   26.4895 C   0  0  0  0  0  0  0  0  0  0  0  0
  -10.2017    4.0665   26.2286 C   0  0  0  0  0  0  0  0  0  0  0  0
   -7.6958    6.9056   27.3478 Cl  0  0  0  0  0  0  0  0  0  0  0  0
   -7.3788    1.8187   27.1758 C   0  0  0  0  0  0  0  0  0  0  0  0
   -6.1707    1.9445   27.7163 N   0  0  0  0  0  0  0  0  0  0  0  0
   -7.7303    0.5567   26.7738 C   0  0  0  0  0  0  0  0  0  0  0  0
   -5.4470    0.8090   27.9737 C   0  0  0  0  0  0  0  0  0  0  0  0
   -5.8034   -0.3976   27.6811 C   0  0  0  0  0  0  0  0  0  0  0  0
   -7.0339   -0.5261   27.0593 C   0  0  0  0  0  0  0  0  0  0  0  0
   -4.1719    1.1117   28.6287 N   0  0  0  0  0  0  0  0  0  0  0  0
  -11.4342    3.9866   25.7195 F   0  0  0  0  0  0  0  0  0  0  0  0
   -3.3824    0.0905   29.0744 C   0  0  0  0  0  0  0  0  0  0  0  0
   -2.6971   -0.0995   29.7851 C   0  0  0  0  0  0  0  0  0  0  0  0
   -1.8565   -1.2734   30.0900 C   0  0  0  0  0  0  0  0  0  0  0  0
   -2.0355   -2.2665   29.1494 C   0  0  0  0  0  0  0  0  0  0  0  0
   -3.2676   -1.2808   28.2796 C   0  0  0  0  0  0  0  0  0  0  0  0
   -1.7762   -3.4357   28.7454 C   0  0  0  0  0  0  0  0  0  0  0  0
   -1.0952   -4.0433   29.2208 O   0  0  0  0  0  0  0  0  0  0  0  0
   -2.5867   -3.8600   27.6286 O   0  0  0  0  0  0  0  0  0  0  0  0
  3  7  1  0
  2  8  1  0
 11 14  1  0
  6 15  1  0
 14 16  2  3
 16 17  1  0
 17 18  2  0
 18 19  1  0
 16 20  1  0
 19 20  2  0
 19 21  1  0
 21 22  2  0
 21 23  1  0
  8  9  2  0
  9 11  1  0
 11 12  2  0
 12 13  1  0
 13 10  2  0
 10  8  1  0
  1  2  2  0
  2  5  1  0
  5  6  2  0
  6  4  1  0
  4  3  2  0
  3  1  1  0
M  END
$$$$
