No_1064-complexes_sdf/6BKW-FPZ/2024-09-17-14-21-01/
     RDKit          3D

 15 15  0  0  0  0  0  0  0  0999 V2000
   -7.9040    3.9820   27.1177 C   0  0  0  0  0  0  0  0  0  0  0  0
   -7.8663    4.8694   27.9238 C   0  0  0  0  0  0  0  0  0  0  0  0
   -7.4698    2.6989   27.4277 C   0  0  0  0  0  0  0  0  0  0  0  0
   -7.9683    1.5964   26.8266 C   0  0  0  0  0  0  0  0  0  0  0  0
   -8.9447    1.7923   25.8533 C   0  0  0  0  0  0  0  0  0  0  0  0
   -9.4219    0.6008   25.2035 C   0  0  0  0  0  0  0  0  0  0  0  0
   -8.9723    3.9438   26.1448 C   0  0  0  0  0  0  0  0  0  0  0  0
   -9.4504    2.9735   25.5406 C   0  0  0  0  0  0  0  0  0  0  0  0
   -7.0683    4.9828   28.9532 N   0  0  0  0  0  0  0  0  0  0  0  0
   -8.4764    6.1529   27.7412 F   0  0  0  0  0  0  0  0  0  0  0  0
   -9.3167    0.3936   24.0079 C   0  0  0  0  0  0  0  0  0  0  0  0
   -8.8903    1.4226   23.1246 C   0  0  0  0  0  0  0  0  0  0  0  0
   -8.9363    1.2860   21.6870 C   0  0  0  0  0  0  0  0  0  0  0  0
   -9.2365    0.0147   21.1899 C   0  0  0  0  0  0  0  0  0  0  0  0
   -9.5435   -1.0454   21.9526 C   0  0  0  0  0  0  0  0  0  0  0  0
  1  2  2  3
  1  3  1  0
  3  4  1  0
  4  5  1  0
  5  6  2  3
  1  7  1  0
  5  8  1  0
  7  8  1  0
  2  9  1  0
  2 10  1  0
  6 11  1  0
 11 12  2  3
 12 13  1  0
 13 14  2  3
 14 15  1  0
M  END
$$$$
