No_1206-complexes_sdf/6BKW-FPZ/2024-09-17-14-21-01/
     RDKit          3D

  4  3  0  0  0  0  0  0  0  0999 V2000
   -7.2496    3.8871   27.4508 C   0  0  0  0  0  0  0  0  0  0  0  0
   -8.5096    4.0291   27.2770 C   0  0  0  0  0  0  0  0  0  0  0  0
   -9.3757    2.9091   26.8765 C   0  0  0  0  0  0  0  0  0  0  0  0
   -6.4510    4.9811   27.9627 C   0  0  0  0  0  0  0  0  0  0  0  0
  1  2  3  0
  2  3  1  0
  1  4  1  0
M  END
$$$$
