No_150-complexes_sdf/6BKW-FPZ/2024-09-17-14-21-01/
     RDKit          3D

 14 15  0  0  0  0  0  0  0  0999 V2000
   -7.2496    3.8871   27.4508 C   0  0  0  0  0  0  0  0  0  0  0  0
   -7.6161    2.7143   27.1523 C   0  0  0  0  0  0  0  0  0  0  0  0
   -8.8302    2.4659   26.5056 C   0  0  0  0  0  0  0  0  0  0  0  0
   -8.1584    5.0090   27.3234 C   0  0  0  0  0  0  0  0  0  0  0  0
   -9.3788    4.7965   26.7695 C   0  0  0  0  0  0  0  0  0  0  0  0
   -9.7028    3.5649   26.3276 C   0  0  0  0  0  0  0  0  0  0  0  0
   -6.5995    1.7837   27.4559 N   0  0  0  0  0  0  0  0  0  0  0  0
   -5.4034    2.1253   27.7961 C   0  0  0  0  0  0  0  0  0  0  0  0
   -6.9131    0.3744   27.2480 C   0  0  0  0  0  0  0  0  0  0  0  0
   -4.4272    0.9875   28.1915 C   0  0  0  0  0  0  0  0  0  0  0  0
   -6.0303   -0.5986   27.6677 C   0  0  0  0  0  0  0  0  0  0  0  0
   -4.7730   -0.2435   28.1094 C   0  0  0  0  0  0  0  0  0  0  0  0
   -7.7275    6.3851   27.7677 C   0  0  0  0  0  0  0  0  0  0  0  0
   -7.6942    7.3766   26.7129 C   0  0  0  0  0  0  0  0  0  0  0  0
  2  7  1  0
  7  8  1  0
  7  9  1  0
  9 11  1  0
 10 12  1  0
  4 13  1  0
 13 14  1  0
  8 10  1  0
 12 11  1  0
  1  2  2  0
  2  3  1  0
  3  6  2  0
  6  5  1  0
  5  4  2  0
  4  1  1  0
M  END
$$$$
