No_1907-complexes_sdf/6BKW-FPZ/2024-09-17-14-21-01/
     RDKit          3D

 30 33  0  0  0  0  0  0  0  0999 V2000
   -7.9040    3.9820   27.1177 C   0  0  0  0  0  0  0  0  0  0  0  0
   -8.2057    2.8231   26.8733 C   0  0  0  0  0  0  0  0  0  0  0  0
   -7.4766    1.7477   27.4593 C   0  0  0  0  0  0  0  0  0  0  0  0
   -6.7221    4.3631   27.8544 C   0  0  0  0  0  0  0  0  0  0  0  0
   -6.1698    2.0708   27.9540 C   0  0  0  0  0  0  0  0  0  0  0  0
   -5.9008    3.3790   28.1722 N   0  0  0  0  0  0  0  0  0  0  0  0
   -8.7416    5.1699   26.7574 C   0  0  2  0  0  0  0  0  0  0  0  0
   -9.6807    5.6168   27.2911 C   0  0  1  0  0  0  0  0  0  0  0  0
   -5.2458    1.0413   28.3914 C   0  0  0  0  0  0  0  0  0  0  0  0
   -5.5417   -0.3088   28.4390 C   0  0  0  0  0  0  0  0  0  0  0  0
   -4.6153   -1.2373   28.9368 C   0  0  0  0  0  0  0  0  0  0  0  0
   -3.3400   -0.7687   29.3177 C   0  0  0  0  0  0  0  0  0  0  0  0
   -3.0160    0.5680   29.1950 C   0  0  0  0  0  0  0  0  0  0  0  0
   -3.8819    1.4274   28.8001 C   0  0  0  0  0  0  0  0  0  0  0  0
   -9.4399    4.8037   25.2868 C   0  0  0  0  0  0  0  0  0  0  0  0
   -2.5298   -1.9020   29.8868 C   0  0  0  0  0  0  0  0  0  0  0  0
   -1.7495   -2.3526   29.0574 F   0  0  0  0  0  0  0  0  0  0  0  0
   -1.6727   -1.3167   30.8495 F   0  0  0  0  0  0  0  0  0  0  0  0
   -3.2414   -2.7642   30.5358 F   0  0  0  0  0  0  0  0  0  0  0  0
   -7.9462    6.5393   26.5053 C   0  0  0  0  0  0  0  0  0  0  0  0
   -8.2834    7.5019   26.7798 C   0  0  0  0  0  0  0  0  0  0  0  0
  -10.7249    4.5432   27.7895 C   0  0  0  0  0  0  0  0  0  0  0  0
   -9.9503    6.9615   27.7384 C   0  0  0  0  0  0  0  0  0  0  0  0
   -9.1411    7.9238   27.4530 C   0  0  0  0  0  0  0  0  0  0  0  0
  -10.7745    4.0221   29.0485 C   0  0  0  0  0  0  0  0  0  0  0  0
  -11.8106    4.2792   26.9520 C   0  0  0  0  0  0  0  0  0  0  0  0
  -12.8528    3.4984   27.2905 C   0  0  0  0  0  0  0  0  0  0  0  0
  -12.7725    2.8653   28.5832 C   0  0  0  0  0  0  0  0  0  0  0  0
  -11.7252    3.0976   29.4526 C   0  0  0  0  0  0  0  0  0  0  0  0
  -13.8052    2.0347   28.9099 F   0  0  0  0  0  0  0  0  0  0  0  0
  1  7  1  0
  7  8  1  0
  5  9  1  0
  7 15  1  6
 12 16  1  0
 16 17  1  0
 16 18  1  0
 16 19  1  0
  7 20  1  0
  8 22  1  1
  8 23  1  0
 21 24  1  0
 28 30  1  0
 23 24  1  0
 21 20  1  0
  9 10  2  0
 10 11  1  0
 11 12  2  0
 12 13  1  0
 13 14  2  0
 14  9  1  0
  1  2  2  0
  2  3  1  0
  3  5  2  0
  5  6  1  0
  6  4  2  0
  4  1  1  0
 22 25  2  0
 25 29  1  0
 29 28  2  0
 28 27  1  0
 27 26  2  0
 26 22  1  0
M  END
$$$$
