No_1880-complexes_sdf/6BKW-FPZ/2024-09-17-14-21-01/
     RDKit          3D

 21 23  0  0  0  0  0  0  0  0999 V2000
   -7.9040    3.9820   27.1177 C   0  0  0  0  0  0  0  0  0  0  0  0
   -9.0711    4.3164   27.0630 C   0  0  0  0  0  0  0  0  0  0  0  0
   -9.5182    5.5541   27.5777 C   0  0  0  0  0  0  0  0  0  0  0  0
   -6.9424    4.7983   27.8424 C   0  0  0  0  0  0  0  0  0  0  0  0
   -7.3526    5.9739   28.3909 C   0  0  0  0  0  0  0  0  0  0  0  0
   -8.6479    6.3742   28.2169 C   0  0  0  0  0  0  0  0  0  0  0  0
  -10.0793    3.4689   26.3368 C   0  0  0  0  0  0  0  0  0  0  0  0
   -9.6567    2.5965   25.4484 C   0  0  0  0  0  0  0  0  0  0  0  0
  -10.5006    1.9727   24.5071 C   0  0  0  0  0  0  0  0  0  0  0  0
  -11.8509    2.3247   24.5523 C   0  0  0  0  0  0  0  0  0  0  0  0
  -12.2919    3.2919   25.4277 C   0  0  0  0  0  0  0  0  0  0  0  0
  -11.4155    3.9825   26.2752 C   0  0  0  0  0  0  0  0  0  0  0  0
  -10.0240    0.9235   23.6172 C   0  0  0  0  0  0  0  0  0  0  0  0
   -9.0803    0.0942   23.9276 C   0  0  0  0  0  0  0  0  0  0  0  0
   -8.4456   -0.7114   22.9532 C   0  0  0  0  0  0  0  0  0  0  0  0
   -8.9554   -0.7089   21.6204 C   0  0  0  0  0  0  0  0  0  0  0  0
   -9.9415    0.1864   21.3027 C   0  0  0  0  0  0  0  0  0  0  0  0
  -10.4103    1.0842   22.2691 C   0  0  0  0  0  0  0  0  0  0  0  0
   -8.4153   -1.6508   20.6572 C   0  0  0  0  0  0  0  0  0  0  0  0
   -7.2475   -2.2906   20.9095 N   0  0  0  0  0  0  0  0  0  0  0  0
   -6.7034   -3.1056   20.0267 C   0  0  0  0  0  0  0  0  0  0  0  0
  2  7  1  0
  9 13  1  0
 16 19  1  0
 19 20  2  3
 20 21  1  0
 13 14  2  0
 14 15  1  0
 15 16  2  0
 16 17  1  0
 17 18  2  0
 18 13  1  0
  1  2  2  0
  2  3  1  0
  3  6  2  0
  6  5  1  0
  5  4  2  0
  4  1  1  0
  7  8  2  0
  8  9  1  0
  9 10  2  0
 10 11  1  0
 11 12  2  0
 12  7  1  0
M  END
$$$$
