No_1258-complexes_sdf/6BKW-FPZ/2024-09-17-14-21-01/
     RDKit          3D

 28 31  0  0  0  0  0  0  0  0999 V2000
   -7.2496    3.8871   27.4508 C   0  0  0  0  0  0  0  0  0  0  0  0
   -8.5096    4.0291   27.2770 C   0  0  2  0  0  0  0  0  0  0  0  0
   -9.2677    5.1714   27.5773 C   0  0  1  0  0  0  0  0  0  0  0  0
   -6.5711    2.6400   27.2842 C   0  0  0  0  0  0  0  0  0  0  0  0
   -7.2939    1.5094   27.0532 C   0  0  1  0  0  0  0  0  0  0  0  0
   -6.6434    0.3282   26.9215 C   0  0  0  0  0  0  0  0  0  0  0  0
   -8.7042    1.6036   27.0559 C   0  0  0  0  0  0  0  0  0  0  0  0
   -9.3043    2.8549   27.2073 C   0  0  1  0  0  0  0  0  0  0  0  0
   -6.7844   -0.2955   25.9091 O   0  0  0  0  0  0  0  0  0  0  0  0
   -5.7790   -0.1180   27.9446 N   0  0  0  0  0  0  0  0  0  0  0  0
   -5.3718    0.6008   29.1038 C   0  0  0  0  0  0  0  0  0  0  0  0
   -4.4674   -0.2362   29.9351 C   0  0  0  0  0  0  0  0  0  0  0  0
   -4.2175   -1.4297   29.3661 C   0  0  0  0  0  0  0  0  0  0  0  0
   -5.0996   -1.3647   28.0761 C   0  0  0  0  0  0  0  0  0  0  0  0
   -8.5407    6.4351   27.4096 C   0  0  0  0  0  0  0  0  0  0  0  0
  -10.6407    5.2073   27.8605 C   0  0  0  0  0  0  0  0  0  0  0  0
   -8.1589    6.8871   26.1440 C   0  0  0  0  0  0  0  0  0  0  0  0
  -11.3686    4.0005   28.0527 C   0  0  2  0  0  0  0  0  0  0  0  0
  -10.7084    2.8101   27.6292 C   0  0  0  0  0  0  0  0  0  0  0  0
  -12.7807    4.0387   28.3201 C   0  0  0  0  0  0  0  0  0  0  0  0
  -13.7470    4.3409   27.5678 C   0  0  0  0  0  0  0  0  0  0  0  0
  -15.0950    4.4778   27.9108 C   0  0  0  0  0  0  0  0  0  0  0  0
  -13.1384    3.5662   29.6388 C   0  0  0  0  0  0  0  0  0  0  0  0
  -14.4183    3.6459   30.1479 C   0  0  0  0  0  0  0  0  0  0  0  0
  -15.4278    4.1014   29.2428 C   0  0  0  0  0  0  0  0  0  0  0  0
   -7.6200    8.2339   26.1922 C   0  0  0  0  0  0  0  0  0  0  0  0
   -3.1201    0.4495   30.2206 C   0  0  0  0  0  0  0  0  0  0  0  0
  -11.3411    1.7118   27.7172 O   0  0  0  0  0  0  0  0  0  0  0  0
  2  1  1  1
  1  4  1  0
  4  5  1  0
  5  6  1  1
  5  7  1  0
  2  8  1  0
  8  7  1  1
  6  9  2  0
  6 10  1  0
 10 11  1  0
 11 12  2  0
 12 13  1  0
 10 14  1  0
 13 14  1  0
  3 15  1  0
  3 16  1  6
 15 17  2  3
  8 19  1  0
 18 19  1  0
 18 20  1  6
 17 26  1  0
 12 27  1  0
 19 28  2  0
  2  3  1  0
 16 18  1  0
 20 21  2  0
 21 22  1  0
 22 25  2  0
 25 24  1  0
 24 23  2  0
 23 20  1  0
M  END
$$$$
