No_1091-complexes_sdf/6BKW-FPZ/2024-09-17-14-21-01/
     RDKit          3D

 28 30  0  0  0  0  0  0  0  0999 V2000
   -7.9040    3.9820   27.1177 C   0  0  0  0  0  0  0  0  0  0  0  0
   -8.2057    2.8231   26.8733 C   0  0  0  0  0  0  0  0  0  0  0  0
   -8.7695    5.0740   26.7916 C   0  0  0  0  0  0  0  0  0  0  0  0
   -8.4337    6.4678   27.0913 C   0  0  0  0  0  0  0  0  0  0  0  0
   -9.3742    2.4311   26.2346 C   0  0  0  0  0  0  0  0  0  0  0  0
  -10.2395    3.4267   25.8887 C   0  0  0  0  0  0  0  0  0  0  0  0
   -9.9567    4.7548   26.1374 C   0  0  0  0  0  0  0  0  0  0  0  0
   -7.9713    7.1484   28.3063 P   0  0  0  0  0  0  0  0  0  0  0  0
   -7.0928    8.2750   27.8948 O   0  0  0  0  0  0  0  0  0  0  0  0
   -6.7904    5.9752   28.5991 O   0  0  0  0  0  0  0  0  0  0  0  0
   -8.8971    7.0632   29.1212 O   0  0  0  0  0  0  0  0  0  0  0  0
   -7.2499    1.6616   27.2803 C   0  0  0  0  0  0  0  0  0  0  0  0
   -7.5053    0.3274   27.0751 C   0  0  0  0  0  0  0  0  0  0  0  0
   -6.6036   -0.5777   27.4713 C   0  0  0  0  0  0  0  0  0  0  0  0
   -5.3918   -0.1644   28.1053 C   0  0  0  0  0  0  0  0  0  0  0  0
   -5.1257    1.1913   28.2652 C   0  0  0  0  0  0  0  0  0  0  0  0
   -5.9685    2.0811   27.8566 C   0  0  0  0  0  0  0  0  0  0  0  0
   -4.4307   -1.2080   28.6146 C   0  0  0  0  0  0  0  0  0  0  0  0
   -3.3801   -0.8952   28.9815 C   0  0  0  0  0  0  0  0  0  0  0  0
   -2.9952    0.5705   29.1522 C   0  0  0  0  0  0  0  0  0  0  0  0
   -3.8143    1.4940   28.8019 C   0  0  0  0  0  0  0  0  0  0  0  0
  -11.4799    3.1312   25.1391 C   0  0  0  0  0  0  0  0  0  0  0  0
  -11.5049    3.2389   23.8585 C   0  0  0  0  0  0  0  0  0  0  0  0
  -10.6499    3.0974   23.0346 C   0  0  0  0  0  0  0  0  0  0  0  0
  -10.6827    3.2889   21.5605 C   0  0  0  0  0  0  0  0  0  0  0  0
   -9.5897    3.0872   20.7018 C   0  0  0  0  0  0  0  0  0  0  0  0
  -12.6701    3.9001   23.2041 C   0  0  0  0  0  0  0  0  0  0  0  0
  -12.8711    4.1536   21.8716 C   0  0  0  0  0  0  0  0  0  0  0  0
  3  4  1  0
  4  8  1  0
  8  9  1  0
  8 10  2  0
  8 11  1  0
  2 12  1  0
  6 22  1  0
 22 23  1  0
 23 24  2  3
 24 25  1  0
 25 26  2  0
 23 27  1  0
 27 28  2  0
 12 13  2  0
 13 14  1  0
 14 15  2  0
 16 17  2  0
 17 12  1  0
 15 16  1  0
 16 21  1  0
 21 20  2  0
 20 19  1  0
 19 18  2  0
 18 15  1  0
  1  2  2  0
  2  5  1  0
  5  6  2  0
  6  7  1  0
  7  3  2  0
  3  1  1  0
M  END
$$$$
