No_1780-complexes_sdf/6BKW-FPZ/2024-09-17-14-21-01/
     RDKit          3D

 19 20  0  0  0  0  0  0  0  0999 V2000
   -7.7129    4.2099   27.0854 C   0  0  0  0  0  0  0  0  0  0  0  0
   -8.2112    3.0637   26.9225 C   0  0  0  0  0  0  0  0  0  0  0  0
   -8.5108    5.3904   26.9436 C   0  0  0  0  0  0  0  0  0  0  0  0
   -9.7256    5.1955   26.3518 C   0  0  0  0  0  0  0  0  0  0  0  0
   -9.4995    2.8258   26.4878 C   0  0  0  0  0  0  0  0  0  0  0  0
  -10.2542    3.9691   26.2055 C   0  0  0  0  0  0  0  0  0  0  0  0
   -7.9435    6.6171   27.1653 N   0  0  0  0  0  0  0  0  0  0  0  0
   -7.3694    1.8186   27.2504 C   0  0  0  0  0  0  0  0  0  0  0  0
   -6.0571    2.0163   27.7115 C   0  0  0  0  0  0  0  0  0  0  0  0
   -5.2522    0.8553   28.0537 C   0  0  0  0  0  0  0  0  0  0  0  0
   -5.7661   -0.4022   27.9395 C   0  0  0  0  0  0  0  0  0  0  0  0
   -7.8108    0.5180   27.1642 C   0  0  0  0  0  0  0  0  0  0  0  0
   -7.0926   -0.5366   27.5419 C   0  0  0  0  0  0  0  0  0  0  0  0
   -3.9615    1.0824   28.4880 N   0  0  0  0  0  0  0  0  0  0  0  0
   -8.5476    7.8253   26.7480 C   0  0  0  0  0  0  0  0  0  0  0  0
   -2.9334    0.5097   28.1902 C   0  0  2  0  0  0  0  0  0  0  0  0
   -2.3790    0.6935   26.9620 C   0  0  0  0  0  0  0  0  0  0  0  0
   -2.3248   -0.5377   29.0523 C   0  0  0  0  0  0  0  0  0  0  0  0
   -2.7751   -0.7171   30.3644 C   0  0  0  0  0  0  0  0  0  0  0  0
  3  7  1  0
  2  8  1  0
 10 14  1  0
  7 15  1  0
 14 16  1  0
 16 17  1  6
 16 18  1  0
 18 19  1  0
  1  2  2  0
  2  5  1  0
  5  6  2  0
  6  4  1  0
  4  3  2  0
  3  1  1  0
  8  9  2  0
  9 10  1  0
 10 11  2  0
 11 13  1  0
 13 12  2  0
 12  8  1  0
M  END
$$$$
