No_1855-complexes_sdf/6BKW-FPZ/2024-09-17-14-21-01/
     RDKit          3D

 27 30  0  0  0  0  0  0  0  0999 V2000
   -7.9040    3.9820   27.1177 C   0  0  0  0  0  0  0  0  0  0  0  0
   -9.0711    4.3164   27.0630 C   0  0  0  0  0  0  0  0  0  0  0  0
   -9.5294    5.4517   27.7215 C   0  0  0  0  0  0  0  0  0  0  0  0
   -7.4336    2.7132   26.5681 C   0  0  0  0  0  0  0  0  0  0  0  0
   -8.3353    1.8569   26.0442 C   0  0  0  0  0  0  0  0  0  0  0  0
   -9.6437    2.3188   25.9308 C   0  0  0  0  0  0  0  0  0  0  0  0
  -10.0223    3.4772   26.4656 C   0  0  0  0  0  0  0  0  0  0  0  0
   -7.1260    4.7707   27.9399 C   0  0  0  0  0  0  0  0  0  0  0  0
   -7.4496    5.9552   28.4223 N   0  0  0  0  0  0  0  0  0  0  0  0
   -8.6370    6.3543   28.2849 C   0  0  0  0  0  0  0  0  0  0  0  0
   -7.8672    0.6120   25.4715 C   0  0  0  0  0  0  0  0  0  0  0  0
   -8.0136    0.4853   24.2680 F   0  0  0  0  0  0  0  0  0  0  0  0
   -6.6012    0.4575   25.8419 F   0  0  0  0  0  0  0  0  0  0  0  0
   -8.7783   -0.7205   26.2360 Cl  0  0  0  0  0  0  0  0  0  0  0  0
   -5.7591    4.4344   28.0743 F   0  0  0  0  0  0  0  0  0  0  0  0
  -11.4518    3.8526   26.2195 C   0  0  0  0  0  0  0  0  0  0  0  0
  -11.9108    4.2095   25.2060 O   0  0  0  0  0  0  0  0  0  0  0  0
  -12.2327    3.8586   27.3733 N   0  0  0  0  0  0  0  0  0  0  0  0
  -11.8916    3.4597   28.6908 C   0  0  0  0  0  0  0  0  0  0  0  0
  -13.0728    3.3416   29.5996 C   0  0  0  0  0  0  0  0  0  0  0  0
  -14.1833    4.0386   29.3809 C   0  0  0  0  0  0  0  0  0  0  0  0
  -14.3856    4.6146   28.1047 C   0  0  0  0  0  0  0  0  0  0  0  0
  -13.3631    4.7670   27.2713 C   0  0  0  0  0  0  0  0  0  0  0  0
  -15.2620    4.0554   30.3997 C   0  0  0  0  0  0  0  0  0  0  0  0
  -15.1721    3.3621   31.3394 C   0  0  0  0  0  0  0  0  0  0  0  0
  -13.9280    2.5896   31.6869 C   0  0  0  0  0  0  0  0  0  0  0  0
  -12.9127    2.5877   30.8139 C   0  0  0  0  0  0  0  0  0  0  0  0
  5 11  1  0
 11 12  1  0
 11 13  1  0
 11 14  1  0
  8 15  1  0
  7 16  1  0
 16 17  2  0
 16 18  1  0
 18 19  1  0
 18 23  1  0
 22 23  1  0
 19 20  1  0
 21 22  1  0
  2  3  2  0
  3 10  1  0
 10  9  2  0
  9  8  1  0
  8  1  2  0
 20 21  2  0
 21 24  1  0
 24 25  2  0
 25 26  1  0
 26 27  2  0
 27 20  1  0
  1  2  1  0
  2  7  1  0
  7  6  2  0
  6  5  1  0
  5  4  2  0
  4  1  1  0
M  END
$$$$
