No_1877-complexes_sdf/6BKW-FPZ/2024-09-17-14-21-01/
     RDKit          3D

 14 15  0  0  0  0  0  0  0  0999 V2000
   -7.9040    3.9820   27.1177 C   0  0  0  0  0  0  0  0  0  0  0  0
   -8.2057    2.8231   26.8733 C   0  0  0  0  0  0  0  0  0  0  0  0
   -8.7695    5.0740   26.7916 C   0  0  0  0  0  0  0  0  0  0  0  0
   -9.9618    4.7598   26.1630 C   0  0  0  0  0  0  0  0  0  0  0  0
   -7.3763    1.7038   27.3414 C   0  0  0  0  0  0  0  0  0  0  0  0
   -9.4134    2.4504   26.3004 C   0  0  0  0  0  0  0  0  0  0  0  0
   -9.7334    1.0748   26.0466 C   0  0  0  0  0  0  0  0  0  0  0  0
  -10.2741    3.4518   25.8746 C   0  0  0  0  0  0  0  0  0  0  0  0
   -6.0560    1.9896   27.8658 C   0  0  0  0  0  0  0  0  0  0  0  0
   -7.6646    0.3823   27.0687 C   0  0  0  0  0  0  0  0  0  0  0  0
  -10.9252    0.7456   25.3248 C   0  0  0  0  0  0  0  0  0  0  0  0
   -8.8529    0.0830   26.4618 C   0  0  0  0  0  0  0  0  0  0  0  0
   -5.0781    1.0401   27.7976 C   0  0  0  0  0  0  0  0  0  0  0  0
   -3.7872    1.4104   28.4365 C   0  0  0  0  0  0  0  0  0  0  0  0
  2  5  1  0
  6  7  1  0
  5  9  2  3
  5 10  1  0
  7 11  1  0
  7 12  1  0
 10 12  1  0
  9 13  1  0
 13 14  1  0
  1  2  2  0
  2  6  1  0
  6  8  2  0
  8  4  1  0
  4  3  2  0
  3  1  1  0
M  END
$$$$
