No_1383-complexes_sdf/6BKW-FPZ/2024-09-17-14-21-01/
     RDKit          3D

 26 28  0  0  0  0  0  0  0  0999 V2000
   -7.9040    3.9820   27.1177 C   0  0  0  0  0  0  0  0  0  0  0  0
   -8.2057    2.8231   26.8733 C   0  0  0  0  0  0  0  0  0  0  0  0
   -9.2962    2.4021   26.1155 C   0  0  0  0  0  0  0  0  0  0  0  0
   -8.7358    5.0662   26.5917 C   0  0  0  0  0  0  0  0  0  0  0  0
   -9.7618    4.7023   25.7546 C   0  0  0  0  0  0  0  0  0  0  0  0
  -10.0066    3.4105   25.4922 C   0  0  0  0  0  0  0  0  0  0  0  0
   -8.3936    6.4769   26.8843 C   0  0  0  0  0  0  0  0  0  0  0  0
   -8.6020    7.4177   26.1293 N   0  0  0  0  0  0  0  0  0  0  0  0
   -7.5447    6.5718   27.9639 N   0  0  0  0  0  0  0  0  0  0  0  0
   -7.3631    1.6476   27.4773 C   0  0  0  0  0  0  0  0  0  0  0  0
   -7.7233    0.3327   27.3704 C   0  0  0  0  0  0  0  0  0  0  0  0
   -8.9913    0.0796   26.8476 C   0  0  0  0  0  0  0  0  0  0  0  0
   -9.7134    1.0407   26.0460 C   0  0  0  0  0  0  0  0  0  0  0  0
   -6.8927   -0.9211   28.1363 Cl  0  0  0  0  0  0  0  0  0  0  0  0
  -11.1298    3.1494   24.5612 C   0  0  0  0  0  0  0  0  0  0  0  0
  -12.3369    2.7826   25.0035 C   0  0  0  0  0  0  0  0  0  0  0  0
  -10.8245    3.0749   23.1767 C   0  0  0  0  0  0  0  0  0  0  0  0
  -11.7341    2.8301   22.2242 C   0  0  0  0  0  0  0  0  0  0  0  0
  -13.3887    2.6342   24.0560 C   0  0  0  0  0  0  0  0  0  0  0  0
  -13.0654    2.6509   22.6836 C   0  0  0  0  0  0  0  0  0  0  0  0
  -15.1564    2.3687   24.5709 Br  0  0  0  0  0  0  0  0  0  0  0  0
   -9.3952   -1.2073   26.6759 O   0  0  0  0  0  0  0  0  0  0  0  0
  -10.3313   -1.5520   27.0695 C   0  0  0  0  0  0  0  0  0  0  0  0
  -11.1242   -1.0364   28.0561 C   0  0  0  0  0  0  0  0  0  0  0  0
  -12.0786   -0.7920   28.2661 C   0  0  0  0  0  0  0  0  0  0  0  0
  -12.7706   -0.1231   29.4389 C   0  0  0  0  0  0  0  0  0  0  0  0
  4  7  1  0
  7  8  2  0
  7  9  1  0
 11 14  1  0
  6 15  1  0
 19 21  1  0
 12 22  1  0
 22 23  1  0
 23 24  1  0
 24 25  2  3
 25 26  1  0
  1  2  2  0
  3  6  2  0
  6  5  1  0
  5  4  2  0
  4  1  1  0
  2  3  1  0
  3 13  1  0
 13 12  2  0
 12 11  1  0
 11 10  2  0
 10  2  1  0
 15 16  2  0
 16 19  1  0
 19 20  2  0
 20 18  1  0
 18 17  2  0
 17 15  1  0
M  END
$$$$
