No_1569-complexes_sdf/6BKW-FPZ/2024-09-17-14-21-01/
     RDKit          3D

 13 14  0  0  0  0  0  0  0  0999 V2000
   -7.9040    3.9820   27.1177 C   0  0  0  0  0  0  0  0  0  0  0  0
   -8.2057    2.8231   26.8733 C   0  0  0  0  0  0  0  0  0  0  0  0
   -9.2962    2.4021   26.1155 C   0  0  0  0  0  0  0  0  0  0  0  0
   -6.8682    4.5169   28.0704 C   0  0  0  0  0  0  0  0  0  0  0  0
  -10.0578    3.3688   25.5520 C   0  0  0  0  0  0  0  0  0  0  0  0
   -9.6997    4.7480   25.6981 C   0  0  0  0  0  0  0  0  0  0  0  0
   -8.6783    5.1111   26.5262 C   0  0  0  0  0  0  0  0  0  0  0  0
   -8.4112    6.4758   26.8405 C   0  0  0  0  0  0  0  0  0  0  0  0
   -7.3398    6.8507   27.6200 C   0  0  0  0  0  0  0  0  0  0  0  0
   -6.7173    5.8635   28.2811 C   0  0  0  0  0  0  0  0  0  0  0  0
  -11.1478    3.0677   24.5927 C   0  0  0  0  0  0  0  0  0  0  0  0
  -12.3225    2.7915   25.0802 C   0  0  0  0  0  0  0  0  0  0  0  0
  -13.4253    2.4972   24.1864 C   0  0  0  0  0  0  0  0  0  0  0  0
  5 11  1  0
 11 12  2  3
 12 13  1  0
  1  4  1  0
  4 10  2  0
 10  9  1  0
  9  8  2  0
  8  7  1  0
  1  2  2  0
  2  3  1  0
  3  5  2  0
  5  6  1  0
  6  7  2  0
  7  1  1  0
M  END
$$$$
