No_1965-complexes_sdf/6BKW-FPZ/2024-09-17-14-21-01/
     RDKit          3D

 20 22  0  0  0  0  0  0  0  0999 V2000
   -7.2496    3.8871   27.4508 C   0  0  0  0  0  0  0  0  0  0  0  0
   -7.6161    2.7143   27.1523 C   0  0  0  0  0  0  0  0  0  0  0  0
   -8.8302    2.4659   26.5056 C   0  0  0  0  0  0  0  0  0  0  0  0
   -8.1584    5.0090   27.3234 C   0  0  0  0  0  0  0  0  0  0  0  0
   -9.3788    4.7965   26.7695 C   0  0  0  0  0  0  0  0  0  0  0  0
   -9.7028    3.5649   26.3276 C   0  0  0  0  0  0  0  0  0  0  0  0
   -6.5552    1.6737   27.4428 C   0  0  0  0  0  0  0  0  0  0  0  0
   -6.9794    0.3269   27.6483 C   0  0  0  0  0  0  0  0  0  0  0  0
   -6.0812   -0.5926   28.1515 C   0  0  0  0  0  0  0  0  0  0  0  0
   -4.7528   -0.1687   28.4098 C   0  0  0  0  0  0  0  0  0  0  0  0
   -4.3800    1.1330   28.1962 C   0  0  0  0  0  0  0  0  0  0  0  0
   -5.2675    2.1225   27.8675 C   0  0  0  0  0  0  0  0  0  0  0  0
   -7.7217    6.3819   27.7611 C   0  0  0  0  0  0  0  0  0  0  0  0
   -3.7989   -1.1899   28.9632 C   0  0  0  0  0  0  0  0  0  0  0  0
   -3.9998   -2.0080   29.5492 C   0  0  0  0  0  0  0  0  0  0  0  0
   -2.9995   -3.0060   30.0848 C   0  0  0  0  0  0  0  0  0  0  0  0
   -1.6700   -2.7764   29.7911 C   0  0  0  0  0  0  0  0  0  0  0  0
   -2.3327   -0.7811   28.6144 C   0  0  0  0  0  0  0  0  0  0  0  0
   -1.3389   -1.6184   29.0461 C   0  0  0  0  0  0  0  0  0  0  0  0
   -8.4740    7.4067   27.2661 N   0  0  0  0  0  0  0  0  0  0  0  0
  2  7  1  0
  4 13  1  0
 10 14  1  0
 13 20  2  0
 14 15  2  0
 15 16  1  0
 16 17  2  0
 17 19  1  0
 19 18  2  0
 18 14  1  0
  1  2  2  0
  2  3  1  0
  3  6  2  0
  6  5  1  0
  5  4  2  0
  4  1  1  0
  7  8  2  0
  8  9  1  0
  9 10  2  0
 10 11  1  0
 11 12  2  0
 12  7  1  0
M  END
$$$$
