No_1872-complexes_sdf/6BKW-FPZ/2024-09-17-14-21-01/
     RDKit          3D

 38 43  0  0  0  0  0  0  0  0999 V2000
   -7.9040    3.9820   27.1177 C   0  0  0  0  0  0  0  0  0  0  0  0
   -7.8663    4.8694   27.9238 C   0  0  0  0  0  0  0  0  0  0  0  0
   -9.0491    3.8523   26.2542 C   0  0  0  0  0  0  0  0  0  0  0  0
   -8.7661    5.9491   27.9690 C   0  0  0  0  0  0  0  0  0  0  0  0
   -9.9295    4.8502   26.2323 C   0  0  0  0  0  0  0  0  0  0  0  0
   -9.8077    5.9288   27.0933 C   0  0  0  0  0  0  0  0  0  0  0  0
   -9.0726    2.7074   25.3087 C   0  0  0  0  0  0  0  0  0  0  0  0
   -8.5824    1.5503   25.7138 N   0  0  0  0  0  0  0  0  0  0  0  0
   -8.5267    0.4701   24.9002 C   0  0  0  0  0  0  0  0  0  0  0  0
   -9.6494    2.8437   24.2340 O   0  0  0  0  0  0  0  0  0  0  0  0
   -7.5292   -0.4454   25.2009 C   0  0  0  0  0  0  0  0  0  0  0  0
   -6.7818   -0.4032   26.4104 C   0  0  0  0  0  0  0  0  0  0  0  0
   -7.0206    0.7468   27.2646 C   0  0  0  0  0  0  0  0  0  0  0  0
   -7.7639    1.6493   26.8974 C   0  0  1  0  0  0  0  0  0  0  0  0
   -7.6091    2.8311   27.4990 N   0  0  0  0  0  0  0  0  0  0  0  0
   -6.7769    5.0847   28.7696 O   0  0  0  0  0  0  0  0  0  0  0  0
   -5.9153   -1.5404   26.7875 C   0  0  0  0  0  0  0  0  0  0  0  0
   -5.5199   -2.3149   26.0187 C   0  0  0  0  0  0  0  0  0  0  0  0
   -6.1573   -2.3315   24.6110 C   0  0  0  0  0  0  0  0  0  0  0  0
   -7.1440   -1.4544   24.2940 C   0  0  0  0  0  0  0  0  0  0  0  0
   -7.6616   -1.5124   22.9381 C   0  0  0  0  0  0  0  0  0  0  0  0
   -8.8531   -2.2117   22.9115 C   0  0  0  0  0  0  0  0  0  0  0  0
   -9.6544   -2.0474   21.8019 C   0  0  0  0  0  0  0  0  0  0  0  0
   -9.0936   -1.3142   20.6563 C   0  0  0  0  0  0  0  0  0  0  0  0
   -7.8753   -0.7297   20.8002 C   0  0  0  0  0  0  0  0  0  0  0  0
   -7.1746   -0.6909   21.9960 C   0  0  0  0  0  0  0  0  0  0  0  0
   -4.5024   -3.3756   26.2443 C   0  0  2  0  0  0  0  0  0  0  0  0
   -4.7757   -4.2937   27.0643 C   0  0  0  0  0  0  0  0  0  0  0  0
   -5.5843   -4.2307   27.9680 C   0  0  0  0  0  0  0  0  0  0  0  0
   -5.7227   -5.2665   28.9439 C   0  0  0  0  0  0  0  0  0  0  0  0
   -4.9621   -6.3779   28.7789 C   0  0  0  0  0  0  0  0  0  0  0  0
   -5.1336   -7.4292   29.7171 C   0  0  0  0  0  0  0  0  0  0  0  0
   -4.0698   -6.5036   27.7392 C   0  0  0  0  0  0  0  0  0  0  0  0
   -3.8869   -5.4663   26.9064 C   0  0  0  0  0  0  0  0  0  0  0  0
   -4.6852   -7.3167   30.7649 O   0  0  0  0  0  0  0  0  0  0  0  0
   -5.7315   -8.4823   29.2250 O   0  0  0  0  0  0  0  0  0  0  0  0
   -3.2708   -3.1132   25.4713 C   0  0  0  0  0  0  0  0  0  0  0  0
   -2.2913   -2.0909   25.9547 C   0  0  0  0  0  0  0  0  0  0  0  0
  3  7  1  0
  7  8  1  0
  8  9  1  0
  7 10  2  0
  8 14  1  0
 14 13  1  6
  1 15  1  0
 14 15  1  0
  2 16  1  0
 20 21  1  0
 18 27  1  0
 27 28  1  0
 31 32  1  0
 32 35  1  0
 32 36  2  0
 27 37  1  1
 37 38  1  0
  9 11  1  0
 12 13  1  0
 11 12  2  0
 12 17  1  0
 17 18  2  0
 18 19  1  0
 19 20  2  0
 20 11  1  0
 28 29  2  0
 29 30  1  0
 30 31  2  0
 31 33  1  0
 33 34  2  0
 34 28  1  0
  1  2  2  0
  2  4  1  0
  4  6  2  0
  6  5  1  0
  5  3  2  0
  3  1  1  0
 21 22  2  0
 22 23  1  0
 23 24  2  0
 24 25  1  0
 25 26  2  0
 26 21  1  0
M  END
$$$$
