No_1721-complexes_sdf/6BKW-FPZ/2024-09-17-14-21-01/
     RDKit          3D

 21 24  0  0  0  0  0  0  0  0999 V2000
   -7.9040    3.9820   27.1177 C   0  0  2  0  0  0  0  0  0  0  0  0
   -8.2057    2.8231   26.8733 C   0  0  2  0  0  0  0  0  0  0  0  0
   -7.0130    4.3706   28.1140 C   0  0  2  0  0  0  0  0  0  0  0  0
   -7.3740    1.7588   27.2586 C   0  0  0  0  0  0  0  0  0  0  0  0
   -6.8741    5.7769   28.4526 C   0  0  0  0  0  0  0  0  0  0  0  0
   -6.1210    2.1432   27.9197 C   0  0  1  0  0  0  0  0  0  0  0  0
   -5.9190    3.4682   28.2573 C   0  0  0  0  0  0  0  0  0  0  0  0
   -8.8868    4.9802   26.8071 N   0  0  0  0  0  0  0  0  0  0  0  0
   -8.7877    6.3030   27.0574 C   0  0  0  0  0  0  0  0  0  0  0  0
   -7.7747    6.7139   27.9329 C   0  0  0  0  0  0  0  0  0  0  0  0
   -9.9596    4.5626   25.8785 C   0  0  0  0  0  0  0  0  0  0  0  0
   -9.9191    3.6252   25.0680 C   0  0  0  0  0  0  0  0  0  0  0  0
   -9.1179    2.3928   25.7746 C   0  0  1  0  0  0  0  0  0  0  0  0
   -5.1439    1.1193   28.3070 C   0  0  0  0  0  0  0  0  0  0  0  0
   -4.4728    0.3694   27.5033 C   0  0  0  0  0  0  0  0  0  0  0  0
   -3.2608   -0.0606   27.8966 C   0  0  0  0  0  0  0  0  0  0  0  0
   -2.8452   -0.2420   29.2419 C   0  0  0  0  0  0  0  0  0  0  0  0
   -3.7707    0.4325   30.2048 C   0  0  0  0  0  0  0  0  0  0  0  0
   -4.7449    1.1140   29.7284 C   0  0  0  0  0  0  0  0  0  0  0  0
   -9.2031    1.1531   25.1609 C   0  0  0  0  0  0  0  0  0  0  0  0
   -9.3504    0.1425   25.9258 C   0  0  0  0  0  0  0  0  0  0  0  0
  1  2  1  0
  1  3  1  0
  2  4  1  6
  4  6  1  0
  3  7  1  6
  6  7  1  0
  1  8  1  1
  8  9  1  0
  5 10  1  0
  9 10  1  0
  8 11  1  0
  2 13  1  0
 12 13  1  0
  6 14  1  1
 13 20  1  6
 20 21  2  0
  3  5  1  0
 12 11  1  0
 14 15  2  0
 15 16  1  0
 16 17  2  0
 17 18  1  0
 18 19  2  0
 19 14  1  0
M  END
$$$$
