No_1164-complexes_sdf/6BKW-FPZ/2024-09-17-14-21-01/
     RDKit          3D

 15 16  0  0  0  0  0  0  0  0999 V2000
   -7.9040    3.9820   27.1177 C   0  0  0  0  0  0  0  0  0  0  0  0
   -7.8663    4.8694   27.9238 C   0  0  0  0  0  0  0  0  0  0  0  0
   -9.0501    3.8017   26.2617 C   0  0  0  0  0  0  0  0  0  0  0  0
   -9.1826    2.7026   25.3575 C   0  0  0  0  0  0  0  0  0  0  0  0
   -8.6940    6.0131   27.8614 C   0  0  0  0  0  0  0  0  0  0  0  0
   -9.9755    4.8547   26.2361 C   0  0  0  0  0  0  0  0  0  0  0  0
   -9.7463    5.9398   27.0364 C   0  0  0  0  0  0  0  0  0  0  0  0
   -8.6850    1.4682   25.7485 C   0  0  0  0  0  0  0  0  0  0  0  0
   -8.8205    0.3702   24.9052 C   0  0  0  0  0  0  0  0  0  0  0  0
   -9.4391    0.5749   23.6524 C   0  0  0  0  0  0  0  0  0  0  0  0
   -9.7698    2.7848   24.1223 C   0  0  0  0  0  0  0  0  0  0  0  0
   -9.8634    1.7863   23.2751 C   0  0  0  0  0  0  0  0  0  0  0  0
  -10.4961    1.9463   21.9327 C   0  0  0  0  0  0  0  0  0  0  0  0
  -10.7179    1.0167   21.1840 N   0  0  0  0  0  0  0  0  0  0  0  0
  -10.2173   -0.1508   21.2985 C   0  0  0  0  0  0  0  0  0  0  0  0
  3  4  1  0
 12 13  1  0
 13 14  2  3
 14 15  1  0
  4  8  2  0
  8  9  1  0
  9 10  2  0
 10 12  1  0
 12 11  2  0
 11  4  1  0
  1  2  2  0
  2  5  1  0
  5  7  2  0
  7  6  1  0
  6  3  2  0
  3  1  1  0
M  END
$$$$
