No_1319-complexes_sdf/6BKW-FPZ/2024-09-17-14-21-01/
     RDKit          3D

 13 14  0  0  0  0  0  0  0  0999 V2000
   -7.7129    4.2099   27.0854 C   0  0  0  0  0  0  0  0  0  0  0  0
   -8.2112    3.0637   26.9225 C   0  0  0  0  0  0  0  0  0  0  0  0
   -8.4224    5.2106   27.8516 C   0  0  0  0  0  0  0  0  0  0  0  0
   -7.4917    1.9381   26.3986 C   0  0  0  0  0  0  0  0  0  0  0  0
   -9.6291    5.2986   27.5490 C   0  0  0  0  0  0  0  0  0  0  0  0
   -9.6588    2.9021   27.0073 C   0  0  0  0  0  0  0  0  0  0  0  0
  -10.3944    4.0625   27.4153 C   0  0  0  0  0  0  0  0  0  0  0  0
   -7.6167    0.6943   27.2037 C   0  0  0  0  0  0  0  0  0  0  0  0
   -6.5418   -0.1093   27.3032 C   0  0  0  0  0  0  0  0  0  0  0  0
   -6.6205   -1.2460   28.0933 C   0  0  0  0  0  0  0  0  0  0  0  0
   -7.9317   -1.6343   28.5340 C   0  0  0  0  0  0  0  0  0  0  0  0
   -9.0373   -0.8620   28.2629 C   0  0  0  0  0  0  0  0  0  0  0  0
   -8.9189    0.3196   27.6024 C   0  0  0  0  0  0  0  0  0  0  0  0
  2  4  1  0
  4  8  1  0
  1  2  2  0
  2  6  1  0
  6  7  2  0
  7  5  1  0
  5  3  2  0
  3  1  1  0
  8  9  2  0
  9 10  1  0
 10 11  2  0
 11 12  1  0
 12 13  2  0
 13  8  1  0
M  END
$$$$
