No_1447-complexes_sdf/6BKW-FPZ/2024-09-17-14-21-01/
     RDKit          3D

 20 21  0  0  0  0  0  0  0  0999 V2000
   -7.9040    3.9820   27.1177 C   0  0  0  0  0  0  0  0  0  0  0  0
   -8.2057    2.8231   26.8733 C   0  0  0  0  0  0  0  0  0  0  0  0
   -9.2962    2.4021   26.1155 C   0  0  0  0  0  0  0  0  0  0  0  0
   -8.7358    5.0662   26.5917 C   0  0  0  0  0  0  0  0  0  0  0  0
   -9.7618    4.7023   25.7546 C   0  0  0  0  0  0  0  0  0  0  0  0
  -10.0066    3.4105   25.4922 C   0  0  0  0  0  0  0  0  0  0  0  0
   -8.3943    6.4760   26.8801 C   0  0  0  0  0  0  0  0  0  0  0  0
   -8.6599    6.8011   28.0203 F   0  0  0  0  0  0  0  0  0  0  0  0
   -9.0760    7.3183   25.9822 F   0  0  0  0  0  0  0  0  0  0  0  0
   -7.0701    6.7350   26.8066 F   0  0  0  0  0  0  0  0  0  0  0  0
   -7.5381    1.5359   27.4274 C   0  0  0  0  0  0  0  0  0  0  0  0
   -6.1245    1.6327   27.7169 C   0  0  0  0  0  0  0  0  0  0  0  0
   -5.4294    0.5355   28.2377 C   0  0  0  0  0  0  0  0  0  0  0  0
   -6.0541   -0.6810   28.3391 C   0  0  0  0  0  0  0  0  0  0  0  0
   -8.1541    0.3298   27.6078 C   0  0  0  0  0  0  0  0  0  0  0  0
   -7.4118   -0.7389   28.0878 C   0  0  0  0  0  0  0  0  0  0  0  0
   -3.9760    0.6982   28.5361 C   0  0  0  0  0  0  0  0  0  0  0  0
   -3.4910    1.7291   28.0609 F   0  0  0  0  0  0  0  0  0  0  0  0
   -3.6999    0.7226   29.8966 F   0  0  0  0  0  0  0  0  0  0  0  0
   -3.2222   -0.3336   28.1214 F   0  0  0  0  0  0  0  0  0  0  0  0
  4  7  1  0
  7  8  1  0
  7  9  1  0
  7 10  1  0
  2 11  1  0
 13 17  1  0
 17 18  1  0
 17 19  1  0
 17 20  1  0
  1  2  2  0
  2  3  1  0
  3  6  2  0
  6  5  1  0
  5  4  2  0
  4  1  1  0
 11 12  2  0
 12 13  1  0
 13 14  2  0
 14 16  1  0
 16 15  2  0
 15 11  1  0
M  END
$$$$
