No_1359-complexes_sdf/6BKW-FPZ/2024-09-17-14-21-01/
     RDKit          3D

 10 10  0  0  0  0  0  0  0  0999 V2000
   -7.2496    3.8871   27.4508 C   0  0  0  0  0  0  0  0  0  0  0  0
   -7.9379    4.9063   27.8518 C   0  0  0  0  0  0  0  0  0  0  0  0
   -7.5112    6.1898   27.6280 C   0  0  0  0  0  0  0  0  0  0  0  0
   -7.4783    2.5435   27.5904 C   0  0  0  0  0  0  0  0  0  0  0  0
   -6.6064    1.5370   27.1750 C   0  0  0  0  0  0  0  0  0  0  0  0
   -7.1002    0.3229   27.0179 C   0  0  0  0  0  0  0  0  0  0  0  0
   -8.3590    0.1231   27.1272 C   0  0  0  0  0  0  0  0  0  0  0  0
   -9.3621    1.0722   27.4006 C   0  0  0  0  0  0  0  0  0  0  0  0
   -8.8932    2.3523   27.5042 C   0  0  0  0  0  0  0  0  0  0  0  0
   -9.3898    4.7507   28.0000 C   0  0  0  0  0  0  0  0  0  0  0  0
  1  2  1  0
  2  3  2  0
  1  4  1  0
  2 10  1  0
  4  5  2  0
  5  6  1  0
  6  7  2  0
  7  8  1  0
  8  9  2  0
  9  4  1  0
M  END
$$$$
