No_1267-complexes_sdf/6BKW-FPZ/2024-09-17-14-21-01/
     RDKit          3D

 30 34  0  0  0  0  0  0  0  0999 V2000
   -7.9040    3.9820   27.1177 C   0  0  0  0  0  0  0  0  0  0  0  0
   -7.8663    4.8694   27.9238 C   0  0  0  0  0  0  0  0  0  0  0  0
   -9.0501    3.8017   26.2617 C   0  0  0  0  0  0  0  0  0  0  0  0
  -10.0189    4.7608   26.3707 C   0  0  0  0  0  0  0  0  0  0  0  0
   -8.6973    5.9722   27.8968 C   0  0  0  0  0  0  0  0  0  0  0  0
   -9.8216    5.8946   27.1241 C   0  0  0  0  0  0  0  0  0  0  0  0
   -9.1437    2.6293   25.4175 C   0  0  0  0  0  0  0  0  0  0  0  0
   -8.6170    1.4258   25.8177 C   0  0  0  0  0  0  0  0  0  0  0  0
   -8.6844    0.3194   24.9788 C   0  0  0  0  0  0  0  0  0  0  0  0
   -9.3359    0.4939   23.7289 C   0  0  0  0  0  0  0  0  0  0  0  0
   -9.8521    1.7195   23.3158 C   0  0  0  0  0  0  0  0  0  0  0  0
   -9.7240    2.7821   24.1593 C   0  0  0  0  0  0  0  0  0  0  0  0
  -10.3881    1.6769   22.0992 O   0  0  0  0  0  0  0  0  0  0  0  0
  -10.5801    2.8992   21.6009 C   0  0  0  0  0  0  0  0  0  0  0  0
  -10.0433    3.2955   20.3936 C   0  0  0  0  0  0  0  0  0  0  0  0
  -11.6361    3.7313   22.0836 C   0  0  0  0  0  0  0  0  0  0  0  0
  -11.9400    4.9286   21.5400 C   0  0  0  0  0  0  0  0  0  0  0  0
  -10.2564    4.5565   19.8363 C   0  0  0  0  0  0  0  0  0  0  0  0
  -11.2619    5.3594   20.3729 C   0  0  0  0  0  0  0  0  0  0  0  0
   -8.0768   -0.9164   25.3999 C   0  0  0  0  0  0  0  0  0  0  0  0
   -7.4530   -0.8998   26.4233 C   0  0  0  0  0  0  0  0  0  0  0  0
   -7.3637    0.2595   27.3803 C   0  0  0  0  0  0  0  0  0  0  0  0
   -7.9021    1.3502   27.0482 C   0  0  0  0  0  0  0  0  0  0  0  0
   -6.7935   -2.2039   26.9800 C   0  0  0  0  0  0  0  0  0  0  0  0
   -6.4113   -2.5202   27.9976 C   0  0  0  0  0  0  0  0  0  0  0  0
   -5.7431   -3.7438   28.4022 C   0  0  0  0  0  0  0  0  0  0  0  0
   -5.5721   -4.6056   27.3558 C   0  0  0  0  0  0  0  0  0  0  0  0
   -6.4861   -3.2041   25.9516 C   0  0  0  0  0  0  0  0  0  0  0  0
   -5.8991   -4.3072   26.1586 C   0  0  0  0  0  0  0  0  0  0  0  0
   -6.6993    5.1322   28.7055 O   0  0  0  0  0  0  0  0  0  0  0  0
  3  7  1  0
 11 13  1  0
 13 14  1  0
 21 24  1  0
  2 30  1  0
 24 25  2  0
 25 26  1  0
 26 27  2  0
 27 29  1  0
 29 28  2  0
 28 24  1  0
  7  8  2  0
  9 10  2  0
 10 11  1  0
 11 12  2  0
 12  7  1  0
 14 15  2  0
 15 18  1  0
 18 19  2  0
 19 17  1  0
 17 16  2  0
 16 14  1  0
  8  9  1  0
  9 20  1  0
 20 21  2  0
 21 22  1  0
 22 23  2  0
 23  8  1  0
  1  2  2  0
  2  5  1  0
  5  6  2  0
  6  4  1  0
  4  3  2  0
  3  1  1  0
M  END
$$$$
