No_1786-complexes_sdf/6BKW-FPZ/2024-09-17-14-21-01/
     RDKit          3D

 40 43  0  0  0  0  0  0  0  0999 V2000
   -7.9040    3.9820   27.1177 C   0  0  0  0  0  0  0  0  0  0  0  0
   -8.2057    2.8231   26.8733 C   0  0  0  0  0  0  0  0  0  0  0  0
   -7.0130    4.3706   28.1140 C   0  0  0  0  0  0  0  0  0  0  0  0
   -7.4093    1.7370   27.3857 C   0  0  0  0  0  0  0  0  0  0  0  0
   -7.7256    0.3814   27.1250 C   0  0  0  0  0  0  0  0  0  0  0  0
   -6.9526   -0.5897   27.7270 C   0  0  0  0  0  0  0  0  0  0  0  0
   -5.9641    3.4684   28.3555 C   0  0  0  0  0  0  0  0  0  0  0  0
   -6.2390    2.1015   28.0861 C   0  0  0  0  0  0  0  0  0  0  0  0
   -5.7291   -0.2092   28.3509 C   0  0  0  0  0  0  0  0  0  0  0  0
   -5.3494    1.1076   28.5714 C   0  0  0  0  0  0  0  0  0  0  0  0
   -8.8971    5.1099   26.6320 C   0  0  0  0  0  0  0  0  0  0  0  0
   -9.5851    4.9031   25.4075 C   0  0  0  0  0  0  0  0  0  0  0  0
   -8.8599    6.4291   27.1682 C   0  0  0  0  0  0  0  0  0  0  0  0
   -4.8481   -1.3260   28.8842 C   0  0  0  0  0  0  0  0  0  0  0  0
   -3.6637   -1.3643   28.8065 N   0  0  0  0  0  0  0  0  0  0  0  0
   -3.0168   -0.3930   28.2010 C   0  0  0  0  0  0  0  0  0  0  0  0
   -2.9069   -1.6620   30.0492 C   0  0  0  0  0  0  0  0  0  0  0  0
   -5.5451   -2.2798   29.4563 O   0  0  0  0  0  0  0  0  0  0  0  0
   -2.5796   -0.7748   26.8492 C   0  0  0  0  0  0  0  0  0  0  0  0
   -1.5184   -1.5084   26.8160 C   0  0  0  0  0  0  0  0  0  0  0  0
   -1.1899   -2.1713   25.5445 C   0  0  0  0  0  0  0  0  0  0  0  0
   -1.2567   -3.4619   25.4128 C   0  0  0  0  0  0  0  0  0  0  0  0
   -0.7422   -4.1174   24.2149 C   0  0  0  0  0  0  0  0  0  0  0  0
   -1.0535   -5.3309   23.8297 C   0  0  0  0  0  0  0  0  0  0  0  0
   -1.7998   -6.1291   24.7228 C   0  0  0  0  0  0  0  0  0  0  0  0
   -2.2807   -5.6232   25.8813 C   0  0  0  0  0  0  0  0  0  0  0  0
   -2.0936   -4.2923   26.2087 C   0  0  0  0  0  0  0  0  0  0  0  0
   -2.9249   -0.8942   31.0581 C   0  0  0  0  0  0  0  0  0  0  0  0
   -3.5656   -1.1668   32.3276 C   0  0  0  0  0  0  0  0  0  0  0  0
   -2.8790   -0.9794   33.5730 C   0  0  0  0  0  0  0  0  0  0  0  0
   -3.5363   -1.3284   34.7326 C   0  0  0  0  0  0  0  0  0  0  0  0
   -4.9112   -1.6286   34.7096 C   0  0  0  0  0  0  0  0  0  0  0  0
   -5.5886   -1.6484   33.5122 C   0  0  0  0  0  0  0  0  0  0  0  0
   -4.9141   -1.4110   32.3351 C   0  0  0  0  0  0  0  0  0  0  0  0
   -5.6222   -1.8112   36.0211 C   0  0  0  0  0  0  0  0  0  0  0  0
   -6.5550   -2.5514   36.1426 O   0  0  0  0  0  0  0  0  0  0  0  0
   -5.0556   -1.2374   37.1030 O   0  0  0  0  0  0  0  0  0  0  0  0
   -5.7886   -0.7599   38.2185 C   0  0  0  0  0  0  0  0  0  0  0  0
   -5.4123    0.5226   38.5567 C   0  0  0  0  0  0  0  0  0  0  0  0
   -6.2364    1.2086   39.5961 C   0  0  0  0  0  0  0  0  0  0  0  0
  1 11  1  0
 11 12  2  0
 11 13  1  0
  9 14  1  0
 14 15  1  0
 15 16  1  0
 15 17  1  0
 14 18  2  0
 16 19  1  0
 19 20  2  3
 20 21  1  0
 17 28  1  0
 28 29  1  0
 32 35  1  0
 35 36  2  0
 35 37  1  0
 37 38  1  0
 38 39  2  3
 39 40  1  0
 21 22  1  0
 29 30  2  0
 30 31  1  0
 31 32  2  0
 32 33  1  0
 33 34  2  0
 34 29  1  0
  4  5  2  0
  5  6  1  0
  6  9  2  0
  9 10  1  0
 10  8  2  0
 22 23  2  0
 23 24  1  0
 24 25  2  0
 25 26  1  0
 26 27  2  0
 27 22  1  0
  1  2  2  0
  2  4  1  0
  4  8  1  0
  8  7  1  0
  7  3  2  0
  3  1  1  0
M  END
$$$$
