No_1701-complexes_sdf/6BKW-FPZ/2024-09-17-14-21-01/
     RDKit          3D

 26 28  0  0  0  0  0  0  0  0999 V2000
   -7.2496    3.8871   27.4508 C   0  0  0  0  0  0  0  0  0  0  0  0
   -7.9379    4.9063   27.8518 C   0  0  0  0  0  0  0  0  0  0  0  0
   -9.3376    4.8647   27.7795 C   0  0  0  0  0  0  0  0  0  0  0  0
   -7.8544    2.6294   27.0414 C   0  0  0  0  0  0  0  0  0  0  0  0
   -9.2852    2.6570   27.0666 C   0  0  0  0  0  0  0  0  0  0  0  0
  -10.0126    3.7528   27.4890 C   0  0  0  0  0  0  0  0  0  0  0  0
  -11.5186    3.8830   27.5378 C   0  0  0  0  0  0  0  0  0  0  0  0
  -12.1883    4.0728   28.3727 N   0  0  0  0  0  0  0  0  0  0  0  0
  -13.5615    4.2119   28.3659 C   0  0  0  0  0  0  0  0  0  0  0  0
  -12.1181    3.4193   26.3225 C   0  0  0  0  0  0  0  0  0  0  0  0
  -13.4674    3.5697   26.1351 C   0  0  0  0  0  0  0  0  0  0  0  0
  -14.2123    3.9831   27.2272 C   0  0  0  0  0  0  0  0  0  0  0  0
   -7.1919    1.5644   26.7401 N   0  0  0  0  0  0  0  0  0  0  0  0
   -6.2664    0.9937   27.6197 C   0  0  0  0  0  0  0  0  0  0  0  0
   -5.6591   -0.2554   27.3354 C   0  0  0  0  0  0  0  0  0  0  0  0
   -7.6562    0.7189   25.7781 C   0  0  0  0  0  0  0  0  0  0  0  0
   -4.5774   -0.6406   28.1353 C   0  0  0  0  0  0  0  0  0  0  0  0
   -4.0857    0.2092   29.1609 C   0  0  0  0  0  0  0  0  0  0  0  0
   -4.6066    1.5448   29.2009 C   0  0  0  0  0  0  0  0  0  0  0  0
   -5.5050    1.9318   28.4055 C   0  0  0  0  0  0  0  0  0  0  0  0
   -2.9725    0.0192   30.1465 C   0  0  0  0  0  0  0  0  0  0  0  0
   -8.7934    0.2118   25.7622 C   0  0  0  0  0  0  0  0  0  0  0  0
   -9.2190   -0.6500   26.7122 C   0  0  0  0  0  0  0  0  0  0  0  0
  -10.5476   -0.9929   26.9533 C   0  0  0  0  0  0  0  0  0  0  0  0
  -11.4719   -0.5830   25.9889 C   0  0  0  0  0  0  0  0  0  0  0  0
  -12.8516   -0.8623   26.2127 C   0  0  0  0  0  0  0  0  0  0  0  0
  6  7  1  0
  4 13  1  0
 13 14  1  0
 13 16  1  0
 18 21  1  0
 16 22  1  0
 22 23  1  0
 23 24  2  3
 24 25  1  0
 25 26  1  0
 14 15  2  0
 15 17  1  0
 17 18  2  0
 18 19  1  0
 19 20  2  0
 20 14  1  0
  1  2  2  0
  2  3  1  0
  3  6  2  0
  6  5  1  0
  5  4  2  0
  4  1  1  0
  7  8  2  0
  8  9  1  0
  9 12  2  0
 12 11  1  0
 11 10  2  0
 10  7  1  0
M  END
$$$$
