No_1530-complexes_sdf/6BKW-FPZ/2024-09-17-14-21-01/
     RDKit          3D

 27 31  0  0  0  0  0  0  0  0999 V2000
   -7.9040    3.9820   27.1177 C   0  0  0  0  0  0  0  0  0  0  0  0
   -7.8663    4.8694   27.9238 C   0  0  0  0  0  0  0  0  0  0  0  0
   -7.4547    2.7080   27.4594 C   0  0  0  0  0  0  0  0  0  0  0  0
   -7.9337    1.5946   26.8372 C   0  0  0  0  0  0  0  0  0  0  0  0
   -8.9032    1.7881   25.8510 C   0  0  0  0  0  0  0  0  0  0  0  0
   -9.3787    2.9871   25.5530 C   0  0  0  0  0  0  0  0  0  0  0  0
   -8.9781    4.0300   26.2200 C   0  0  0  0  0  0  0  0  0  0  0  0
   -8.2454    6.2265   27.6332 N   0  0  0  0  0  0  0  0  0  0  0  0
   -9.1863    6.5523   26.7292 C   0  0  0  0  0  0  0  0  0  0  0  0
   -9.5464    5.3954   25.9189 C   0  0  0  0  0  0  0  0  0  0  0  0
   -7.1781    0.3564   27.2266 C   0  0  1  0  0  0  0  0  0  0  0  0
   -7.8727   -0.7372   27.5066 N   0  0  0  0  0  0  0  0  0  0  0  0
   -9.0110   -0.8122   27.8420 C   0  0  0  0  0  0  0  0  0  0  0  0
   -9.7196   -1.5462   28.0393 C   0  0  0  0  0  0  0  0  0  0  0  0
  -10.8221   -1.6681   28.4034 C   0  0  0  0  0  0  0  0  0  0  0  0
  -11.5881   -0.3994   28.6293 C   0  0  0  0  0  0  0  0  0  0  0  0
  -10.9102    0.7422   28.3487 C   0  0  0  0  0  0  0  0  0  0  0  0
   -9.6336    0.6954   27.9865 C   0  0  0  0  0  0  0  0  0  0  0  0
   -7.1211   -1.9323   27.8805 C   0  0  0  0  0  0  0  0  0  0  0  0
   -5.7262   -1.7401   27.8120 C   0  0  0  0  0  0  0  0  0  0  0  0
   -5.7518    0.3035   26.9608 C   0  0  0  0  0  0  0  0  0  0  0  0
   -4.8758   -2.9338   28.2064 C   0  0  0  0  0  0  0  0  0  0  0  0
   -5.0560   -0.6335   27.3675 C   0  0  0  0  0  0  0  0  0  0  0  0
   -7.6083   -2.9156   28.2944 O   0  0  0  0  0  0  0  0  0  0  0  0
   -3.7937   -2.8803   28.1172 C   0  0  0  0  0  0  0  0  0  0  0  0
   -3.0179   -1.6602   27.6476 C   0  0  0  0  0  0  0  0  0  0  0  0
   -3.6864   -0.5784   27.2343 C   0  0  0  0  0  0  0  0  0  0  0  0
 11  4  1  6
 11 12  1  0
 12 13  1  0
 12 19  1  0
 19 20  1  0
 11 21  1  0
 21 23  1  0
 19 24  2  0
  1  2  2  0
  2  8  1  0
  8  9  2  0
  9 10  1  0
 10  7  2  0
 20 22  2  0
 22 25  1  0
 25 26  2  0
 26 27  1  0
 27 23  2  0
 23 20  1  0
  1  3  1  0
  3  4  2  0
  4  5  1  0
  5  6  2  0
  6  7  1  0
  7  1  1  0
 13 14  2  0
 14 15  1  0
 15 16  2  0
 16 17  1  0
 17 18  2  0
 18 13  1  0
M  END
$$$$
