No_1813-complexes_sdf/6BKW-FPZ/2024-09-17-14-21-01/
     RDKit          3D

 15 16  0  0  0  0  0  0  0  0999 V2000
   -7.7129    4.2099   27.0854 C   0  0  0  0  0  0  0  0  0  0  0  0
   -7.7814    5.1722   27.8972 C   0  0  0  0  0  0  0  0  0  0  0  0
   -8.8998    3.8713   26.3707 C   0  0  0  0  0  0  0  0  0  0  0  0
   -9.9938    4.6774   26.5446 C   0  0  0  0  0  0  0  0  0  0  0  0
   -8.7789    6.1536   27.9256 C   0  0  0  0  0  0  0  0  0  0  0  0
   -9.9428    5.8398   27.2296 C   0  0  0  0  0  0  0  0  0  0  0  0
   -8.9208    2.6404   25.5721 C   0  0  0  0  0  0  0  0  0  0  0  0
   -8.3287    1.4696   26.1305 C   0  0  0  0  0  0  0  0  0  0  0  0
   -8.4362    0.4124   25.7891 C   0  0  0  0  0  0  0  0  0  0  0  0
   -7.7339   -0.7756   26.4210 C   0  0  0  0  0  0  0  0  0  0  0  0
   -6.9427   -0.4830   27.5448 C   0  0  0  0  0  0  0  0  0  0  0  0
   -6.7197    0.8283   27.8881 C   0  0  0  0  0  0  0  0  0  0  0  0
   -7.3110    1.8307   27.2722 C   0  0  0  0  0  0  0  0  0  0  0  0
   -7.1753    3.1064   27.6890 F   0  0  0  0  0  0  0  0  0  0  0  0
   -6.6307    4.6694   26.0681 Cl  0  0  0  0  0  0  0  0  0  0  0  0
  3  7  1  0
 13 14  1  0
  1 15  1  0
  7  8  1  0
  8  9  2  0
  9 10  1  0
 10 11  2  0
 11 12  1  0
 12 13  2  0
 13  8  1  0
  1  2  2  0
  2  5  1  0
  5  6  2  0
  6  4  1  0
  4  3  2  0
  3  1  1  0
M  END
$$$$
