No_1365-complexes_sdf/6BKW-FPZ/2024-09-17-14-21-01/
     RDKit          3D

 15 16  0  0  0  0  0  0  0  0999 V2000
   -7.9040    3.9820   27.1177 C   0  0  0  0  0  0  0  0  0  0  0  0
   -9.0711    4.3164   27.0630 C   0  0  0  0  0  0  0  0  0  0  0  0
  -10.0395    3.8218   27.1938 C   0  0  0  0  0  0  0  0  0  0  0  0
   -7.6424    2.5858   27.3610 C   0  0  0  0  0  0  0  0  0  0  0  0
   -8.7741    1.7889   27.4566 C   0  0  0  0  0  0  0  0  0  0  0  0
  -10.0155    2.3581   27.4300 C   0  0  0  0  0  0  0  0  0  0  0  0
  -11.0759    1.3722   27.6942 C   0  0  0  0  0  0  0  0  0  0  0  0
  -10.8698    0.1612   27.7270 C   0  0  0  0  0  0  0  0  0  0  0  0
   -9.5420   -0.3840   27.6528 C   0  0  0  0  0  0  0  0  0  0  0  0
   -8.5018    0.3991   27.5804 C   0  0  0  0  0  0  0  0  0  0  0  0
   -9.1282    5.9840   26.8325 C   0  0  0  0  0  0  0  0  0  0  0  0
   -8.5884    7.0044   27.1296 N   0  0  0  0  0  0  0  0  0  0  0  0
   -6.2493    2.0805   27.3716 C   0  0  0  0  0  0  0  0  0  0  0  0
   -5.2374    2.7302   27.9964 N   0  0  0  0  0  0  0  0  0  0  0  0
   -5.9024    1.0867   26.6622 O   0  0  0  0  0  0  0  0  0  0  0  0
  2 11  1  0
 11 12  3  0
  4 13  1  0
 13 14  1  0
 13 15  2  0
  1  2  2  0
  2  3  1  0
  3  6  2  0
  5  4  2  0
  4  1  1  0
  5  6  1  0
  6  7  1  0
  7  8  2  0
  8  9  1  0
  9 10  2  0
 10  5  1  0
M  END
$$$$
