No_1902-complexes_sdf/6BKW-FPZ/2024-09-17-14-21-01/
     RDKit          3D

 19 20  0  0  0  0  0  0  0  0999 V2000
   -7.7129    4.2099   27.0854 C   0  0  0  0  0  0  0  0  0  0  0  0
   -8.2112    3.0637   26.9225 C   0  0  0  0  0  0  0  0  0  0  0  0
   -8.4224    5.2106   27.8516 C   0  0  0  0  0  0  0  0  0  0  0  0
   -9.5628    2.7160   27.4089 C   0  0  0  0  0  0  0  0  0  0  0  0
  -10.2639    3.7034   28.1156 C   0  0  0  0  0  0  0  0  0  0  0  0
   -7.8025    6.5389   27.9601 C   0  0  0  0  0  0  0  0  0  0  0  0
   -9.6552    4.9660   28.3153 C   0  0  0  0  0  0  0  0  0  0  0  0
  -10.1919    1.4154   27.3176 C   0  0  0  0  0  0  0  0  0  0  0  0
  -10.8422    1.1145   26.2271 C   0  0  2  0  0  0  0  0  0  0  0  0
  -11.0577    1.5888   25.2223 C   0  0  0  0  0  0  0  0  0  0  0  0
  -11.6471    1.0871   24.0198 C   0  0  0  0  0  0  0  0  0  0  0  0
  -11.7865    1.8051   22.7694 C   0  0  0  0  0  0  0  0  0  0  0  0
  -11.1928    3.0750   22.6673 C   0  0  0  0  0  0  0  0  0  0  0  0
  -10.5696    3.6679   23.7692 C   0  0  0  0  0  0  0  0  0  0  0  0
  -10.4676    3.0289   24.8873 C   0  0  0  0  0  0  0  0  0  0  0  0
  -11.5762   -0.2793   26.4580 C   0  0  0  0  0  0  0  0  0  0  0  0
  -12.7288   -0.3952   27.1555 C   0  0  0  0  0  0  0  0  0  0  0  0
  -13.3683   -1.5676   27.2970 C   0  0  0  0  0  0  0  0  0  0  0  0
  -12.7803   -2.6971   26.7418 C   0  0  0  0  0  0  0  0  0  0  0  0
  3  6  1  0
  4  8  1  0
  9  8  1  1
  9 10  1  0
  9 16  1  0
 16 17  1  0
 17 18  2  3
 18 19  1  0
  1  2  2  0
  2  4  1  0
  4  5  2  0
  5  7  1  0
  7  3  2  0
  3  1  1  0
 10 11  2  0
 11 12  1  0
 12 13  2  0
 13 14  1  0
 14 15  2  0
 15 10  1  0
M  END
$$$$
