No_1378-complexes_sdf/6BKW-FPZ/2024-09-17-14-21-01/
     RDKit          3D

 21 23  0  0  0  0  0  0  0  0999 V2000
   -7.9040    3.9820   27.1177 C   0  0  0  0  0  0  0  0  0  0  0  0
   -7.8663    4.8694   27.9238 C   0  0  0  0  0  0  0  0  0  0  0  0
   -9.0501    3.8017   26.2617 C   0  0  0  0  0  0  0  0  0  0  0  0
   -9.1826    2.7026   25.3575 C   0  0  0  0  0  0  0  0  0  0  0  0
   -8.6940    6.0131   27.8614 C   0  0  0  0  0  0  0  0  0  0  0  0
   -9.9755    4.8547   26.2361 C   0  0  0  0  0  0  0  0  0  0  0  0
   -9.7463    5.9398   27.0364 C   0  0  0  0  0  0  0  0  0  0  0  0
   -8.6902    1.5380   25.7265 N   0  0  0  0  0  0  0  0  0  0  0  0
   -8.0986    1.3552   26.8544 C   0  0  0  0  0  0  0  0  0  0  0  0
   -7.3879    2.5260   27.4610 C   0  0  0  0  0  0  0  0  0  0  0  0
   -8.9783    0.3675   24.9065 C   0  0  0  0  0  0  0  0  0  0  0  0
   -9.1485    0.5392   23.6780 C   0  0  1  0  0  0  0  0  0  0  0  0
   -9.8623    2.8500   24.1522 C   0  0  0  0  0  0  0  0  0  0  0  0
   -9.2900   -0.5553   22.7165 C   0  0  0  0  0  0  0  0  0  0  0  0
   -9.7056    1.8423   23.1367 C   0  0  0  0  0  0  0  0  0  0  0  0
  -10.1298   -1.4658   22.8716 N   0  0  0  0  0  0  0  0  0  0  0  0
  -10.7897   -1.7333   23.6657 C   0  0  0  0  0  0  0  0  0  0  0  0
  -11.6763   -2.0434   24.0933 C   0  0  0  0  0  0  0  0  0  0  0  0
  -12.4944   -2.0141   24.7028 C   0  0  0  0  0  0  0  0  0  0  0  0
  -13.4486   -2.1014   25.5408 C   0  0  0  0  0  0  0  0  0  0  0  0
  -13.2369   -2.5025   27.0260 Cl  0  0  0  0  0  0  0  0  0  0  0  0
  3  4  1  0
  4  8  1  0
  8  9  1  0
  1 10  1  0
  9 10  1  0
  8 11  1  0
  4 13  1  0
 12 14  1  1
 12 15  1  0
 14 16  1  0
 16 17  1  0
 17 18  1  0
 18 19  2  3
 19 20  1  0
 20 21  1  0
 13 15  1  0
 12 11  1  0
  1  2  2  0
  2  5  1  0
  5  7  2  0
  7  6  1  0
  6  3  2  0
  3  1  1  0
M  END
$$$$
