No_1362-complexes_sdf/6BKW-FPZ/2024-09-17-14-21-01/
     RDKit          3D

 27 30  0  0  0  0  0  0  0  0999 V2000
   -7.7129    4.2099   27.0854 C   0  0  0  0  0  0  0  0  0  0  0  0
   -7.7814    5.1722   27.8972 C   0  0  0  0  0  0  0  0  0  0  0  0
   -7.3155    2.9699   27.6145 C   0  0  0  0  0  0  0  0  0  0  0  0
   -7.6814    1.8188   26.9581 C   0  0  0  0  0  0  0  0  0  0  0  0
   -8.6377    1.9131   25.9324 C   0  0  0  0  0  0  0  0  0  0  0  0
   -9.1866    3.0673   25.6037 C   0  0  0  0  0  0  0  0  0  0  0  0
   -8.8394    4.1752   26.2513 C   0  0  0  0  0  0  0  0  0  0  0  0
   -8.1569    6.2584   27.9333 N   0  0  0  0  0  0  0  0  0  0  0  0
  -10.1628    2.8579   24.5279 C   0  0  0  0  0  0  0  0  0  0  0  0
  -10.9210    4.0363   24.1444 C   0  0  0  0  0  0  0  0  0  0  0  0
  -11.8683    4.0258   23.1046 C   0  0  0  0  0  0  0  0  0  0  0  0
  -11.9240    2.8747   22.3395 C   0  0  0  0  0  0  0  0  0  0  0  0
  -10.4008    1.8297   23.6377 C   0  0  0  0  0  0  0  0  0  0  0  0
  -11.1912    1.8217   22.5990 C   0  0  0  0  0  0  0  0  0  0  0  0
   -7.0478    0.5243   27.3380 C   0  0  0  0  0  0  0  0  0  0  0  0
   -5.7858    0.4829   27.9430 C   0  0  0  0  0  0  0  0  0  0  0  0
   -5.2104   -0.7121   28.3597 C   0  0  0  0  0  0  0  0  0  0  0  0
   -5.9716   -1.8617   28.1821 C   0  0  0  0  0  0  0  0  0  0  0  0
   -7.5765   -0.7567   27.3124 C   0  0  0  0  0  0  0  0  0  0  0  0
   -7.1583   -1.8641   27.7110 C   0  0  0  0  0  0  0  0  0  0  0  0
   -6.5243    5.3498   28.7016 O   0  0  0  0  0  0  0  0  0  0  0  0
   -3.8364   -0.6655   28.9724 C   0  0  0  0  0  0  0  0  0  0  0  0
   -3.2488    0.3680   28.8310 F   0  0  0  0  0  0  0  0  0  0  0  0
   -3.9560   -0.9432   30.3394 F   0  0  0  0  0  0  0  0  0  0  0  0
   -3.1148   -1.6458   28.4253 F   0  0  0  0  0  0  0  0  0  0  0  0
   -9.2863    6.5941   27.1151 C   0  0  0  0  0  0  0  0  0  0  0  0
   -9.6321    5.4481   26.2348 C   0  0  0  0  0  0  0  0  0  0  0  0
  6  9  1  0
  4 15  1  0
  2 21  1  0
 17 22  1  0
 22 23  1  0
 22 24  1  0
 22 25  1  0
 15 16  2  0
 16 17  1  0
 17 18  2  0
 18 20  1  0
 20 19  2  0
 19 15  1  0
  1  2  2  0
  2  8  1  0
  8 26  2  0
 26 27  1  0
 27  7  2  0
  9 10  2  0
 10 11  1  0
 11 12  2  0
 12 14  1  0
 14 13  2  0
 13  9  1  0
  1  3  1  0
  3  4  2  0
  4  5  1  0
  5  6  2  0
  6  7  1  0
  7  1  1  0
M  END
$$$$
