No_1881-complexes_sdf/6BKW-FPZ/2024-09-17-14-21-01/
     RDKit          3D

 27 30  0  0  0  0  0  0  0  0999 V2000
   -7.2496    3.8871   27.4508 C   0  0  0  0  0  0  0  0  0  0  0  0
   -8.5096    4.0291   27.2770 C   0  0  0  0  0  0  0  0  0  0  0  0
   -9.2677    5.1714   27.5773 C   0  0  0  0  0  0  0  0  0  0  0  0
   -6.5711    2.6400   27.2842 C   0  0  0  0  0  0  0  0  0  0  0  0
   -7.2939    1.5094   27.0532 C   0  0  0  0  0  0  0  0  0  0  0  0
   -8.6188    1.6877   26.7552 C   0  0  0  0  0  0  0  0  0  0  0  0
   -9.3056    2.8656   26.9844 C   0  0  0  0  0  0  0  0  0  0  0  0
   -8.5447    6.4130   27.5603 C   0  0  0  0  0  0  0  0  0  0  0  0
  -10.6432    5.1477   27.8980 C   0  0  0  0  0  0  0  0  0  0  0  0
   -9.0960    7.4644   26.6823 C   0  0  0  0  0  0  0  0  0  0  0  0
   -9.3951    0.4499   26.4283 C   0  0  0  0  0  0  0  0  0  0  0  0
  -10.3302    0.1601   26.0349 N   0  0  0  0  0  0  0  0  0  0  0  0
   -8.5117   -0.8342   26.7292 C   0  0  0  0  0  0  0  0  0  0  0  0
  -11.2615    1.2502   25.7117 C   0  0  0  0  0  0  0  0  0  0  0  0
  -12.3965    0.9571   24.9221 C   0  0  0  0  0  0  0  0  0  0  0  0
  -13.1703    1.9504   24.5490 C   0  0  0  0  0  0  0  0  0  0  0  0
  -12.9217    3.2989   24.9390 C   0  0  0  0  0  0  0  0  0  0  0  0
  -11.7859    3.5742   25.6564 C   0  0  0  0  0  0  0  0  0  0  0  0
  -10.9799    2.5929   26.0375 C   0  0  0  0  0  0  0  0  0  0  0  0
  -11.2514    2.8373   27.0498 Cl  0  0  0  0  0  0  0  0  0  0  0  0
   -8.4888    3.0298   26.3432 Cl  0  0  0  0  0  0  0  0  0  0  0  0
   -9.1453   -1.9246   26.7245 C   0  0  0  0  0  0  0  0  0  0  0  0
   -8.4667   -3.1386   27.0646 C   0  0  0  0  0  0  0  0  0  0  0  0
   -7.1368   -3.0458   27.4713 C   0  0  0  0  0  0  0  0  0  0  0  0
   -6.4847   -1.8666   27.5429 C   0  0  0  0  0  0  0  0  0  0  0  0
   -7.1505   -0.7212   27.2271 C   0  0  0  0  0  0  0  0  0  0  0  0
   -6.6485    0.2878   27.2449 C   0  0  0  0  0  0  0  0  0  0  0  0
  3  8  1  0
  3  9  1  0
  8 10  1  0
  6 11  1  0
 11 12  2  3
 11 13  1  0
 12 14  1  0
 19 20  1  0
  7 21  1  0
  5 27  1  0
 26 27  1  0
  3  2  1  0
 13 22  2  0
 22 23  1  0
 23 24  2  0
 24 25  1  0
 25 26  2  0
 26 13  1  0
  1  2  2  0
  2  7  1  0
  7  6  2  0
  6  5  1  0
  5  4  2  0
  4  1  1  0
 14 15  2  0
 15 16  1  0
 16 17  2  0
 17 18  1  0
 18 19  2  0
 19 14  1  0
M  END
$$$$
