No_1083-complexes_sdf/6BKW-FPZ/2024-09-17-14-21-01/
     RDKit          3D

 31 33  0  0  0  0  0  0  0  0999 V2000
   -7.9040    3.9820   27.1177 C   0  0  0  0  0  0  0  0  0  0  0  0
   -7.8663    4.8694   27.9238 C   0  0  0  0  0  0  0  0  0  0  0  0
   -9.0501    3.8017   26.2617 C   0  0  0  0  0  0  0  0  0  0  0  0
  -10.0189    4.7608   26.3707 C   0  0  0  0  0  0  0  0  0  0  0  0
   -8.6973    5.9722   27.8968 C   0  0  0  0  0  0  0  0  0  0  0  0
   -9.8216    5.8946   27.1241 C   0  0  0  0  0  0  0  0  0  0  0  0
   -9.1704    2.4454   25.2686 Cl  0  0  0  0  0  0  0  0  0  0  0  0
   -6.8945    2.9672   27.3148 O   0  0  0  0  0  0  0  0  0  0  0  0
   -6.9091    2.0897   28.2554 C   0  0  0  0  0  0  0  0  0  0  0  0
   -6.2984    0.8178   27.6303 C   0  0  0  0  0  0  0  0  0  0  0  0
   -5.0851    0.7550   27.9933 C   0  0  0  0  0  0  0  0  0  0  0  0
   -4.2244   -0.3671   27.5749 C   0  0  0  0  0  0  0  0  0  0  0  0
   -4.7980   -1.2595   26.7045 C   0  0  0  0  0  0  0  0  0  0  0  0
   -6.1356   -1.1211   26.3252 C   0  0  0  0  0  0  0  0  0  0  0  0
   -6.8940   -0.0347   26.7965 C   0  0  0  0  0  0  0  0  0  0  0  0
   -2.8294   -0.4447   28.0268 C   0  0  0  0  0  0  0  0  0  0  0  0
   -2.7160   -0.3849   29.4231 C   0  0  0  0  0  0  0  0  0  0  0  0
   -1.7527   -0.5912   27.2055 C   0  0  0  0  0  0  0  0  0  0  0  0
   -1.9002   -1.3223   30.1180 C   0  0  0  0  0  0  0  0  0  0  0  0
   -0.6880   -1.6014   29.4073 C   0  0  0  0  0  0  0  0  0  0  0  0
   -0.6861   -1.3976   27.9298 C   0  0  0  0  0  0  0  0  0  0  0  0
   -1.8758   -1.3303   31.5350 C   0  0  1  0  0  0  0  0  0  0  0  0
   -2.6054   -0.5771   32.2559 O   0  0  0  0  0  0  0  0  0  0  0  0
   -1.3153   -2.3373   32.1602 N   0  0  0  0  0  0  0  0  0  0  0  0
   -1.3418   -2.4944   33.6075 C   0  0  0  0  0  0  0  0  0  0  0  0
   -2.5502   -2.9216   34.1003 C   0  0  2  0  0  0  0  0  0  0  0  0
   -3.2788   -3.5974   33.5568 C   0  0  0  0  0  0  0  0  0  0  0  0
   -4.5302   -3.5758   33.2572 Cl  0  0  0  0  0  0  0  0  0  0  0  0
   -3.3092   -1.6395   34.5365 N   0  0  0  0  0  0  0  0  0  0  0  0
   -4.5687   -1.4865   34.7194 C   0  0  0  0  0  0  0  0  0  0  0  0
   -5.2151   -2.2216   34.9569 C   0  0  0  0  0  0  0  0  0  0  0  0
  3  7  1  0
  1  8  1  0
  8  9  1  0
  9 10  1  0
 12 16  1  0
 19 22  1  0
 22 23  1  1
 22 24  1  0
 24 25  1  0
 26 25  1  6
 26 27  1  0
 27 28  1  0
 26 29  1  0
 29 30  1  0
 30 31  2  0
 16 17  2  0
 17 19  1  0
 19 20  2  0
 20 21  1  0
 21 18  2  0
 18 16  1  0
  1  2  2  0
  2  5  1  0
  5  6  2  0
  6  4  1  0
  4  3  2  0
  3  1  1  0
 10 11  2  0
 11 12  1  0
 12 13  2  0
 13 14  1  0
 14 15  2  0
 15 10  1  0
M  END
$$$$
