No_1632-complexes_sdf/6BKW-FPZ/2024-09-17-14-21-01/
     RDKit          3D

 16 17  0  0  0  0  0  0  0  0999 V2000
   -7.9040    3.9820   27.1177 C   0  0  0  0  0  0  0  0  0  0  0  0
   -7.8663    4.8694   27.9238 C   0  0  0  0  0  0  0  0  0  0  0  0
   -9.0501    3.8017   26.2617 C   0  0  0  0  0  0  0  0  0  0  0  0
  -10.0189    4.7608   26.3707 C   0  0  0  0  0  0  0  0  0  0  0  0
   -8.6770    5.9780   27.9222 C   0  0  0  0  0  0  0  0  0  0  0  0
   -9.8040    5.8752   27.0958 C   0  0  0  0  0  0  0  0  0  0  0  0
   -9.3560    2.6988   25.4290 C   0  0  0  0  0  0  0  0  0  0  0  0
  -10.0885    2.7847   24.3121 C   0  0  0  0  0  0  0  0  0  0  0  0
  -10.2706    1.6783   23.4566 C   0  0  0  0  0  0  0  0  0  0  0  0
   -9.4842    0.4917   23.7072 C   0  0  0  0  0  0  0  0  0  0  0  0
   -8.5304    1.5221   25.4944 C   0  0  0  0  0  0  0  0  0  0  0  0
   -9.5933   -0.6332   22.8113 C   0  0  0  0  0  0  0  0  0  0  0  0
   -8.5813    0.4846   24.7002 C   0  0  0  0  0  0  0  0  0  0  0  0
   -8.6428   -0.8070   22.0279 F   0  0  0  0  0  0  0  0  0  0  0  0
   -9.7713   -1.7758   23.5248 F   0  0  0  0  0  0  0  0  0  0  0  0
  -10.6993   -0.5242   21.9871 F   0  0  0  0  0  0  0  0  0  0  0  0
  3  7  1  0
 10 12  1  0
 12 14  1  0
 12 15  1  0
 12 16  1  0
  7  8  2  0
  8  9  1  0
  9 10  2  0
 10 13  1  0
 13 11  2  0
 11  7  1  0
  1  2  2  0
  2  5  1  0
  5  6  2  0
  6  4  1  0
  4  3  2  0
  3  1  1  0
M  END
$$$$
