No_1984-complexes_sdf/6BKW-FPZ/2024-09-17-14-21-01/
     RDKit          3D

 38 42  0  0  0  0  0  0  0  0999 V2000
   -7.7129    4.2099   27.0854 C   0  0  0  0  0  0  0  0  0  0  0  0
   -7.7814    5.1722   27.8972 C   0  0  0  0  0  0  0  0  0  0  0  0
   -7.3155    2.9699   27.6145 C   0  0  0  0  0  0  0  0  0  0  0  0
   -7.6814    1.8188   26.9581 C   0  0  0  0  0  0  0  0  0  0  0  0
   -8.6377    1.9131   25.9324 C   0  0  0  0  0  0  0  0  0  0  0  0
   -9.1866    3.0673   25.6037 C   0  0  0  0  0  0  0  0  0  0  0  0
   -8.8394    4.1752   26.2513 C   0  0  0  0  0  0  0  0  0  0  0  0
   -8.2486    6.4747   27.5719 N   0  0  0  0  0  0  0  0  0  0  0  0
   -9.0953    6.6391   26.5260 C   0  0  0  0  0  0  0  0  0  0  0  0
   -9.5376    5.4551   25.7578 C   0  0  0  0  0  0  0  0  0  0  0  0
   -7.1632    0.4656   27.1724 C   0  0  0  0  0  0  0  0  0  0  0  0
   -5.9441    0.3479   27.9458 C   0  0  0  0  0  0  0  0  0  0  0  0
   -5.4270   -0.9280   28.2491 C   0  0  0  0  0  0  0  0  0  0  0  0
   -6.1774   -2.0127   27.8765 C   0  0  0  0  0  0  0  0  0  0  0  0
   -7.6511   -0.8050   27.0248 C   0  0  0  0  0  0  0  0  0  0  0  0
   -7.3053   -1.9431   27.3375 C   0  0  0  0  0  0  0  0  0  0  0  0
   -4.0941   -0.9515   28.9807 C   0  0  0  0  0  0  0  0  0  0  0  0
   -3.1147   -1.0834   28.5937 C   0  0  0  0  0  0  0  0  0  0  0  0
   -2.7905   -1.0271   27.1173 C   0  0  0  0  0  0  0  0  0  0  0  0
   -3.1844   -0.0897   26.4078 C   0  0  0  0  0  0  0  0  0  0  0  0
   -3.4715    1.1433   26.9481 C   0  0  0  0  0  0  0  0  0  0  0  0
   -3.1472    2.2709   26.2242 N   0  0  0  0  0  0  0  0  0  0  0  0
   -4.4128   -0.7874   30.5237 C   0  0  0  0  0  0  0  0  0  0  0  0
   -3.5790   -0.3574   31.2880 C   0  0  0  0  0  0  0  0  0  0  0  0
   -2.1573   -0.6092   30.8508 C   0  0  0  0  0  0  0  0  0  0  0  0
   -1.8922   -0.8368   29.4755 C   0  0  0  0  0  0  0  0  0  0  0  0
   -3.7024   -0.2735   32.5790 F   0  0  0  0  0  0  0  0  0  0  0  0
   -5.6050   -3.3710   28.3593 C   0  0  0  0  0  0  0  0  0  0  0  0
   -5.2828   -4.2776   27.6583 N   0  0  0  0  0  0  0  0  0  0  0  0
   -5.3045   -4.2419   26.3903 C   0  0  0  0  0  0  0  0  0  0  0  0
   -4.4733   -4.2494   25.6507 C   0  0  0  0  0  0  0  0  0  0  0  0
   -3.1365   -4.5675   26.0835 C   0  0  0  0  0  0  0  0  0  0  0  0
   -2.9912   -5.1921   27.3050 C   0  0  2  0  0  0  0  0  0  0  0  0
   -4.1716   -5.1147   28.1553 C   0  0  0  0  0  0  0  0  0  0  0  0
   -6.1442   -3.6607   29.5824 O   0  0  0  0  0  0  0  0  0  0  0  0
   -1.7453   -5.7185   27.8155 C   0  0  0  0  0  0  0  0  0  0  0  0
   -1.5872   -5.8829   28.9605 O   0  0  0  0  0  0  0  0  0  0  0  0
   -0.9074   -6.0125   26.9613 F   0  0  0  0  0  0  0  0  0  0  0  0
  4 11  1  0
 13 17  1  0
 18 19  1  0
 19 20  2  3
 20 21  1  0
 21 22  1  0
 24 27  1  0
 14 28  1  0
 28 29  1  0
 29 30  1  0
 31 32  1  0
 29 34  1  0
 33 34  1  0
 28 35  2  0
 33 36  1  1
 36 37  2  0
 36 38  1  0
 30 31  1  0
 32 33  1  0
  1  2  2  0
  2  8  1  0
  8  9  2  0
  9 10  1  0
 10  7  2  0
  1  3  1  0
  3  4  2  0
  4  5  1  0
  5  6  2  0
  6  7  1  0
  7  1  1  0
 17 18  2  0
 18 26  1  0
 26 25  2  0
 25 24  1  0
 24 23  2  0
 23 17  1  0
 11 12  2  0
 12 13  1  0
 13 14  2  0
 14 16  1  0
 16 15  2  0
 15 11  1  0
M  END
$$$$
