No_111-complexes_sdf/6BKW-FPZ/2024-09-17-14-21-01/
     RDKit          3D

 39 44  0  0  0  0  0  0  0  0999 V2000
   -7.9040    3.9820   27.1177 C   0  0  0  0  0  0  0  0  0  0  0  0
   -8.2057    2.8231   26.8733 C   0  0  0  0  0  0  0  0  0  0  0  0
   -8.7695    5.0740   26.7916 C   0  0  0  0  0  0  0  0  0  0  0  0
   -8.4337    6.4678   27.0913 C   0  0  0  0  0  0  0  0  0  0  0  0
   -9.3742    2.4311   26.2346 C   0  0  0  0  0  0  0  0  0  0  0  0
  -10.2395    3.4267   25.8887 C   0  0  0  0  0  0  0  0  0  0  0  0
   -9.9567    4.7548   26.1374 C   0  0  0  0  0  0  0  0  0  0  0  0
   -8.7467    7.4299   26.4155 N   0  0  0  0  0  0  0  0  0  0  0  0
   -7.5368    6.5669   28.0681 O   0  0  0  0  0  0  0  0  0  0  0  0
   -7.2503    1.6690   27.2767 C   0  0  0  0  0  0  0  0  0  0  0  0
   -7.5339    0.3301   27.1335 C   0  0  0  0  0  0  0  0  0  0  0  0
   -6.6430   -0.5778   27.5226 C   0  0  0  0  0  0  0  0  0  0  0  0
   -5.3935   -0.1672   28.0822 C   0  0  0  0  0  0  0  0  0  0  0  0
   -5.1100    1.1965   28.2105 C   0  0  0  0  0  0  0  0  0  0  0  0
   -5.9490    2.0786   27.8149 C   0  0  0  0  0  0  0  0  0  0  0  0
   -4.4322   -1.2155   28.5874 C   0  0  2  0  0  0  0  0  0  0  0  0
   -4.1771   -1.3372   29.8657 C   0  0  0  0  0  0  0  0  0  0  0  0
   -3.6802   -1.7508   30.6514 C   0  0  0  0  0  0  0  0  0  0  0  0
   -3.6556   -1.4955   32.1672 C   0  0  0  0  0  0  0  0  0  0  0  0
   -4.4528   -0.4329   32.5512 C   0  0  0  0  0  0  0  0  0  0  0  0
   -5.1536    0.2147   31.5773 C   0  0  0  0  0  0  0  0  0  0  0  0
   -5.0814   -0.0680   30.4866 C   0  0  0  0  0  0  0  0  0  0  0  0
   -3.6899   -1.9600   27.6876 C   0  0  0  0  0  0  0  0  0  0  0  0
  -11.4678    3.1320   25.1243 C   0  0  0  0  0  0  0  0  0  0  0  0
  -11.8573    3.6988   24.2234 C   0  0  0  0  0  0  0  0  0  0  0  0
  -13.0443    3.4725   23.3910 C   0  0  0  0  0  0  0  0  0  0  0  0
  -13.8211    2.4585   23.7896 C   0  0  0  0  0  0  0  0  0  0  0  0
  -12.3767    2.0657   25.6400 C   0  0  0  0  0  0  0  0  0  0  0  0
  -13.4791    1.7886   24.9433 C   0  0  0  0  0  0  0  0  0  0  0  0
   -2.9906   -1.4088   26.7348 C   0  0  0  0  0  0  0  0  0  0  0  0
   -4.5606   -3.1481   27.2247 C   0  0  0  0  0  0  0  0  0  0  0  0
   -4.3703   -3.6389   26.0873 C   0  0  0  0  0  0  0  0  0  0  0  0
   -3.4477   -3.0313   25.1388 C   0  0  0  0  0  0  0  0  0  0  0  0
   -2.7716   -1.9088   25.4872 C   0  0  0  0  0  0  0  0  0  0  0  0
   -2.5569   -2.6943   28.5730 C   0  0  1  0  0  0  0  0  0  0  0  0
   -2.6649   -2.7306   30.0715 C   0  0  0  0  0  0  0  0  0  0  0  0
   -2.0884   -4.0611   28.0622 C   0  0  0  0  0  0  0  0  0  0  0  0
   -2.6508   -5.1204   28.4251 C   0  0  0  0  0  0  0  0  0  0  0  0
   -2.2028   -6.1913   28.3638 C   0  0  0  0  0  0  0  0  0  0  0  0
  3  4  1  0
  4  8  2  0
  4  9  1  0
  2 10  1  0
 16 13  1  6
 16 23  1  0
  6 24  1  0
 23 30  1  0
 23 31  1  0
 32 33  1  0
 30 34  1  0
 23 35  1  0
 18 36  1  0
 35 36  1  1
 35 37  1  0
 37 38  2  3
 38 39  1  0
 16 17  1  0
 34 33  1  0
 32 31  1  0
  1  2  2  0
  2  5  1  0
  5  6  2  0
  6  7  1  0
  7  3  2  0
  3  1  1  0
 24 25  2  0
 25 26  1  0
 26 27  2  0
 27 29  1  0
 29 28  2  0
 28 24  1  0
 10 11  2  0
 11 12  1  0
 12 13  2  0
 13 14  1  0
 14 15  2  0
 15 10  1  0
 17 18  1  0
 18 19  2  0
 19 20  1  0
 20 21  2  0
 21 22  1  0
 22 17  2  0
M  END
$$$$
