No_1531-complexes_sdf/6BKW-FPZ/2024-09-17-14-21-01/
     RDKit          3D

 15 16  0  0  0  0  0  0  0  0999 V2000
   -7.2496    3.8871   27.4508 C   0  0  0  0  0  0  0  0  0  0  0  0
   -8.5096    4.0291   27.2770 C   0  0  0  0  0  0  0  0  0  0  0  0
   -9.3451    2.8786   26.9046 C   0  0  0  0  0  0  0  0  0  0  0  0
   -8.7138    1.7135   26.7541 C   0  0  0  0  0  0  0  0  0  0  0  0
   -6.5992    2.6226   27.4994 C   0  0  0  0  0  0  0  0  0  0  0  0
   -7.3741    1.5404   27.1241 C   0  0  0  0  0  0  0  0  0  0  0  0
   -9.1412    5.3765   27.3180 C   0  0  0  0  0  0  0  0  0  0  0  0
   -8.3356    6.5119   27.0681 C   0  0  0  0  0  0  0  0  0  0  0  0
   -8.8426    7.8263   27.0908 C   0  0  0  0  0  0  0  0  0  0  0  0
   -6.5114    0.3106   27.0746 C   0  0  0  0  0  0  0  0  0  0  0  0
   -6.8742   -0.6883   26.2232 C   0  0  0  0  0  0  0  0  0  0  0  0
   -5.4699    0.1318   28.0190 C   0  0  0  0  0  0  0  0  0  0  0  0
   -5.1042   -1.0086   28.4991 C   0  0  0  0  0  0  0  0  0  0  0  0
   -5.4691   -2.0955   27.6149 C   0  0  0  0  0  0  0  0  0  0  0  0
   -6.3881   -1.9888   26.6038 C   0  0  0  0  0  0  0  0  0  0  0  0
  2  7  1  0
  7  8  2  3
  8  9  1  0
  6 10  1  0
 10 11  2  0
 11 15  1  0
 15 14  2  0
 14 13  1  0
 13 12  2  0
 12 10  1  0
  1  2  2  0
  2  3  1  0
  3  4  2  0
  4  6  1  0
  6  5  2  0
  5  1  1  0
M  END
$$$$
