No_1427-complexes_sdf/6BKW-FPZ/2024-09-17-14-21-01/
     RDKit          3D

 21 22  0  0  0  0  0  0  0  0999 V2000
   -7.9040    3.9820   27.1177 C   0  0  0  0  0  0  0  0  0  0  0  0
   -8.2057    2.8231   26.8733 C   0  0  0  0  0  0  0  0  0  0  0  0
   -8.7695    5.0740   26.7916 C   0  0  0  0  0  0  0  0  0  0  0  0
   -8.4337    6.4678   27.0913 C   0  0  0  0  0  0  0  0  0  0  0  0
   -9.3742    2.4311   26.2346 C   0  0  0  0  0  0  0  0  0  0  0  0
  -10.2395    3.4267   25.8887 C   0  0  0  0  0  0  0  0  0  0  0  0
   -9.9567    4.7548   26.1374 C   0  0  0  0  0  0  0  0  0  0  0  0
   -8.8110    7.3245   26.4321 F   0  0  0  0  0  0  0  0  0  0  0  0
   -7.6042    6.5882   28.1073 F   0  0  0  0  0  0  0  0  0  0  0  0
   -7.0919    1.8016   27.3399 C   0  0  0  0  0  0  0  0  0  0  0  0
   -7.4215    0.3927   27.2982 C   0  0  0  0  0  0  0  0  0  0  0  0
   -6.4806   -0.4596   27.7802 C   0  0  0  0  0  0  0  0  0  0  0  0
   -5.1996    0.0501   28.1919 C   0  0  0  0  0  0  0  0  0  0  0  0
   -4.9439    1.4059   28.1611 C   0  0  0  0  0  0  0  0  0  0  0  0
   -5.8438    2.2299   27.7514 C   0  0  0  0  0  0  0  0  0  0  0  0
   -4.2195   -0.9444   28.7471 C   0  0  0  0  0  0  0  0  0  0  0  0
   -3.4460   -0.5259   29.5644 O   0  0  0  0  0  0  0  0  0  0  0  0
   -4.4403   -2.2027   28.5834 O   0  0  0  0  0  0  0  0  0  0  0  0
  -11.4629    3.1306   25.1248 C   0  0  0  0  0  0  0  0  0  0  0  0
  -11.5299    2.0192   24.4789 C   0  0  0  0  0  0  0  0  0  0  0  0
  -10.6853    1.1424   24.5233 C   0  0  0  0  0  0  0  0  0  0  0  0
  3  4  1  0
  4  8  1  0
  4  9  1  0
  2 10  1  0
 13 16  1  0
 16 17  2  0
 16 18  1  0
  6 19  1  0
 19 20  2  3
 20 21  1  0
  1  2  2  0
  2  5  1  0
  5  6  2  0
  6  7  1  0
  7  3  2  0
  3  1  1  0
 10 11  2  0
 11 12  1  0
 12 13  2  0
 13 14  1  0
 14 15  2  0
 15 10  1  0
M  END
$$$$
