No_1128-complexes_sdf/6BKW-FPZ/2024-09-17-14-21-01/
     RDKit          3D

 22 23  0  0  0  0  0  0  0  0999 V2000
   -7.9040    3.9820   27.1177 C   0  0  0  0  0  0  0  0  0  0  0  0
   -8.2057    2.8231   26.8733 C   0  0  0  0  0  0  0  0  0  0  0  0
   -8.7695    5.0740   26.7916 C   0  0  0  0  0  0  0  0  0  0  0  0
   -8.4337    6.4678   27.0913 C   0  0  0  0  0  0  0  0  0  0  0  0
   -9.3742    2.4311   26.2346 C   0  0  0  0  0  0  0  0  0  0  0  0
  -10.2395    3.4267   25.8887 C   0  0  0  0  0  0  0  0  0  0  0  0
   -9.9567    4.7548   26.1374 C   0  0  0  0  0  0  0  0  0  0  0  0
   -7.9449    7.5014   26.9590 N   0  0  0  0  0  0  0  0  0  0  0  0
   -7.2426    1.6814   27.2966 C   0  0  0  0  0  0  0  0  0  0  0  0
   -6.0952    2.0167   27.8653 N   0  0  0  0  0  0  0  0  0  0  0  0
   -5.1055    0.9619   28.0460 C   0  0  0  0  0  0  0  0  0  0  0  0
   -5.3168   -0.0901   27.9370 C   0  0  0  0  0  0  0  0  0  0  0  0
   -7.3092    0.3184   26.9987 C   0  0  0  0  0  0  0  0  0  0  0  0
   -6.4929   -0.5774   27.3325 C   0  0  0  0  0  0  0  0  0  0  0  0
   -3.9501    1.5978   28.7259 N   0  0  0  0  0  0  0  0  0  0  0  0
  -11.4604    3.1221   25.1090 C   0  0  0  0  0  0  0  0  0  0  0  0
  -12.5563    2.5741   25.7671 C   0  0  0  0  0  0  0  0  0  0  0  0
  -12.6182    2.1609   26.8117 C   0  0  0  0  0  0  0  0  0  0  0  0
  -13.8342    1.5783   27.4995 C   0  0  0  0  0  0  0  0  0  0  0  0
  -13.8343    1.0138   28.8218 C   0  0  0  0  0  0  0  0  0  0  0  0
  -12.5872    1.0510   29.5035 C   0  0  0  0  0  0  0  0  0  0  0  0
  -11.4326    1.5526   28.9324 C   0  0  0  0  0  0  0  0  0  0  0  0
  3  4  1  0
  4  8  3  0
  2  9  1  0
 11 15  1  0
  6 16  1  0
 16 17  1  0
 17 18  2  3
 18 19  1  0
 19 20  2  3
 20 21  1  0
 21 22  2  0
  1  2  2  0
  2  5  1  0
  5  6  2  0
  6  7  1  0
  7  3  2  0
  3  1  1  0
  9 10  2  0
 10 11  1  0
 11 12  2  0
 12 14  1  0
 14 13  2  0
 13  9  1  0
M  END
$$$$
