No_1515-complexes_sdf/6BKW-FPZ/2024-09-17-14-21-01/
     RDKit          3D

 39 44  0  0  0  0  0  0  0  0999 V2000
   -7.2496    3.8871   27.4508 C   0  0  0  0  0  0  0  0  0  0  0  0
   -8.5096    4.0291   27.2770 C   0  0  0  0  0  0  0  0  0  0  0  0
   -9.3451    2.8786   26.9046 C   0  0  0  0  0  0  0  0  0  0  0  0
   -6.6065    2.5680   27.5073 C   0  0  0  0  0  0  0  0  0  0  0  0
   -7.4233    1.4858   27.2402 C   0  0  0  0  0  0  0  0  0  0  0  0
   -8.7362    1.6525   26.9989 C   0  0  0  0  0  0  0  0  0  0  0  0
   -9.1023    5.3710   27.2131 C   0  0  0  0  0  0  0  0  0  0  0  0
   -8.5923    6.3829   27.0880 C   0  0  0  0  0  0  0  0  0  0  0  0
   -7.1667    6.4694   26.8740 C   0  0  0  0  0  0  0  0  0  0  0  0
   -6.4668    5.2464   27.4170 C   0  0  0  0  0  0  0  0  0  0  0  0
   -6.7579    0.1949   27.3755 C   0  0  0  0  0  0  0  0  0  0  0  0
   -6.2402   -0.3233   26.6828 C   0  0  0  0  0  0  0  0  0  0  0  0
   -5.5262   -1.6472   26.8554 C   0  0  0  0  0  0  0  0  0  0  0  0
   -5.4578   -2.2113   28.0672 C   0  0  0  0  0  0  0  0  0  0  0  0
   -6.1563   -1.5111   29.0948 C   0  0  0  0  0  0  0  0  0  0  0  0
   -6.7829   -0.3099   28.8369 C   0  0  0  0  0  0  0  0  0  0  0  0
   -6.1873   -2.1014   30.7170 Cl  0  0  0  0  0  0  0  0  0  0  0  0
  -10.7664    2.9272   26.7496 C   0  0  0  0  0  0  0  0  0  0  0  0
  -11.3797    1.9975   26.6371 C   0  0  0  0  0  0  0  0  0  0  0  0
  -10.7779    0.6417   26.6921 C   0  0  0  0  0  0  0  0  0  0  0  0
   -9.5048    0.5040   26.9095 C   0  0  0  0  0  0  0  0  0  0  0  0
   -4.9175    2.5823   27.8418 Cl  0  0  0  0  0  0  0  0  0  0  0  0
   -9.1203    7.6310   26.9543 F   0  0  0  0  0  0  0  0  0  0  0  0
  -11.6408   -0.4778   26.6146 O   0  0  0  0  0  0  0  0  0  0  0  0
  -12.5707   -0.7637   26.3554 C   0  0  0  0  0  0  0  0  0  0  0  0
  -13.1058   -1.8494   26.3693 C   0  0  0  0  0  0  0  0  0  0  0  0
  -14.4312   -2.1496   26.0010 C   0  0  0  0  0  0  0  0  0  0  0  0
  -13.5910    0.1698   25.7490 C   0  0  0  0  0  0  0  0  0  0  0  0
  -14.8237    0.0173   25.3926 C   0  0  0  0  0  0  0  0  0  0  0  0
  -15.2614   -1.2671   25.5269 C   0  0  0  0  0  0  0  0  0  0  0  0
  -16.5417   -1.6258   25.1754 O   0  0  0  0  0  0  0  0  0  0  0  0
  -17.0717   -2.6048   24.8836 C   0  0  0  0  0  0  0  0  0  0  0  0
  -18.3447   -2.5912   24.4436 C   0  0  0  0  0  0  0  0  0  0  0  0
  -19.1005   -1.5211   24.4540 C   0  0  0  0  0  0  0  0  0  0  0  0
  -20.4410   -1.5224   24.2119 C   0  0  0  0  0  0  0  0  0  0  0  0
  -21.0204   -2.7048   23.7398 C   0  0  0  0  0  0  0  0  0  0  0  0
  -20.3075   -3.8419   23.6393 C   0  0  0  0  0  0  0  0  0  0  0  0
  -18.9470   -3.8216   24.0686 C   0  0  0  0  0  0  0  0  0  0  0  0
  -16.1708   -3.4658   24.4096 O   0  0  0  0  0  0  0  0  0  0  0  0
  5 11  1  0
 15 17  1  0
  4 22  1  0
  8 23  1  0
 20 24  1  0
 24 25  1  0
 30 31  1  0
 31 32  1  0
 32 33  1  0
 32 39  2  0
  2  3  1  0
  6  5  1  0
  5  4  2  0
  4  1  1  0
  1  2  2  0
  2  7  1  0
  7  8  2  0
  8  9  1  0
  9 10  2  0
 10  1  1  0
 33 34  2  0
 34 35  1  0
 35 36  2  0
 36 37  1  0
 37 38  2  0
 38 33  1  0
 25 26  2  0
 26 27  1  0
 27 30  2  0
 30 29  1  0
 29 28  2  0
 28 25  1  0
 11 12  2  0
 12 13  1  0
 13 14  2  0
 14 15  1  0
 15 16  2  0
 16 11  1  0
  3  6  2  0
  6 21  1  0
 21 20  2  0
 20 19  1  0
 19 18  2  0
 18  3  1  0
M  END
$$$$
