No_1804-complexes_sdf/6BKW-FPZ/2024-09-17-14-21-01/
     RDKit          3D

 29 33  0  0  0  0  0  0  0  0999 V2000
   -7.9040    3.9820   27.1177 C   0  0  0  0  0  0  0  0  0  0  0  0
   -7.8663    4.8694   27.9238 C   0  0  0  0  0  0  0  0  0  0  0  0
   -9.0501    3.8017   26.2617 C   0  0  0  0  0  0  0  0  0  0  0  0
  -10.0189    4.7608   26.3707 C   0  0  0  0  0  0  0  0  0  0  0  0
   -8.6973    5.9722   27.8968 C   0  0  0  0  0  0  0  0  0  0  0  0
   -9.8216    5.8946   27.1241 C   0  0  0  0  0  0  0  0  0  0  0  0
   -9.1437    2.6293   25.4175 C   0  0  0  0  0  0  0  0  0  0  0  0
   -9.9828    2.7153   24.2925 C   0  0  0  0  0  0  0  0  0  0  0  0
  -10.1268    1.6091   23.5189 C   0  0  0  0  0  0  0  0  0  0  0  0
   -9.3057    0.4350   23.7675 C   0  0  0  0  0  0  0  0  0  0  0  0
   -8.4306    1.4884   25.5636 C   0  0  0  0  0  0  0  0  0  0  0  0
   -8.4806    0.4246   24.8166 C   0  0  0  0  0  0  0  0  0  0  0  0
   -9.5941   -0.6004   22.7327 C   0  0  0  0  0  0  0  0  0  0  0  0
  -10.2876   -0.5150   21.7454 C   0  0  0  0  0  0  0  0  0  0  0  0
  -11.0361    0.7320   21.4918 C   0  0  0  0  0  0  0  0  0  0  0  0
  -10.9249    1.7307   22.3285 C   0  0  0  0  0  0  0  0  0  0  0  0
  -11.8189    0.7614   20.3852 F   0  0  0  0  0  0  0  0  0  0  0  0
   -7.6445   -0.7547   25.1050 C   0  0  2  0  0  0  0  0  0  0  0  0
   -8.0811   -1.6173   25.8130 N   0  0  0  0  0  0  0  0  0  0  0  0
   -7.7378   -1.8443   26.9979 C   0  0  0  0  0  0  0  0  0  0  0  0
   -6.5695   -1.4342   27.4359 C   0  0  0  0  0  0  0  0  0  0  0  0
   -5.6110   -0.8800   26.5971 C   0  0  0  0  0  0  0  0  0  0  0  0
   -6.2440   -0.1434   25.8336 C   0  0  0  0  0  0  0  0  0  0  0  0
   -9.0845   -2.5496   25.2505 C   0  0  0  0  0  0  0  0  0  0  0  0
  -10.4290   -2.4582   25.6988 C   0  0  0  0  0  0  0  0  0  0  0  0
  -11.4362   -2.9655   25.0123 C   0  0  0  0  0  0  0  0  0  0  0  0
  -11.1583   -3.8343   23.9516 C   0  0  0  0  0  0  0  0  0  0  0  0
   -8.7168   -3.4174   24.2844 C   0  0  0  0  0  0  0  0  0  0  0  0
   -9.7889   -4.0276   23.5916 C   0  0  0  0  0  0  0  0  0  0  0  0
  3  7  1  0
 15 17  1  0
 18 12  1  1
 18 19  1  0
 19 20  1  0
 21 22  1  0
 18 23  1  0
 22 23  1  0
 19 24  1  0
 21 20  1  0
 10 13  2  0
 13 14  1  0
 14 15  2  0
 15 16  1  0
 16  9  2  0
 24 25  2  0
 25 26  1  0
 26 27  2  0
 27 29  1  0
 29 28  2  0
 28 24  1  0
  7  8  2  0
  8  9  1  0
  9 10  1  0
 10 12  1  0
 12 11  2  0
 11  7  1  0
  1  2  2  0
  2  5  1  0
  5  6  2  0
  6  4  1  0
  4  3  2  0
  3  1  1  0
M  END
$$$$
