No_1693-complexes_sdf/6BKW-FPZ/2024-09-17-14-21-01/
     RDKit          3D

 21 24  0  0  0  0  0  0  0  0999 V2000
   -7.7129    4.2099   27.0854 C   0  0  0  0  0  0  0  0  0  0  0  0
   -7.7814    5.1722   27.8972 C   0  0  0  0  0  0  0  0  0  0  0  0
   -8.8998    3.8713   26.3707 C   0  0  0  0  0  0  0  0  0  0  0  0
   -9.7416    3.2213   26.9591 C   0  0  0  0  0  0  0  0  0  0  0  0
  -10.0326    3.7911   28.3648 C   0  0  0  0  0  0  0  0  0  0  0  0
   -8.9883    5.6119   28.3672 C   0  0  0  0  0  0  0  0  0  0  0  0
   -9.9416    4.7701   28.8031 C   0  0  0  0  0  0  0  0  0  0  0  0
  -10.5085    2.1036   26.4307 C   0  0  0  0  0  0  0  0  0  0  0  0
  -11.6764    2.2053   25.9241 C   0  0  0  0  0  0  0  0  0  0  0  0
   -9.8373    0.8154   26.4487 C   0  0  0  0  0  0  0  0  0  0  0  0
   -8.7131    0.5617   27.0486 C   0  0  0  0  0  0  0  0  0  0  0  0
   -8.0868   -0.7233   27.1047 C   0  0  0  0  0  0  0  0  0  0  0  0
   -8.7703   -1.7208   26.4977 C   0  0  0  0  0  0  0  0  0  0  0  0
   -9.9514   -1.5056   25.8547 C   0  0  0  0  0  0  0  0  0  0  0  0
  -10.5310   -0.2333   25.8575 C   0  0  0  0  0  0  0  0  0  0  0  0
  -12.2580    3.3009   25.7475 C   0  0  0  0  0  0  0  0  0  0  0  0
  -13.5524    3.5293   25.1133 C   0  0  0  0  0  0  0  0  0  0  0  0
  -14.1232    2.4204   24.6523 C   0  0  0  0  0  0  0  0  0  0  0  0
  -13.5664    1.3595   24.7458 C   0  0  0  0  0  0  0  0  0  0  0  0
  -12.3422    1.1045   25.3593 C   0  0  0  0  0  0  0  0  0  0  0  0
  -11.7380   -0.0583   25.3397 N   0  0  0  0  0  0  0  0  0  0  0  0
  1  2  1  0
  1  3  1  0
  3  4  2  0
  4  5  1  0
  2  6  2  0
  5  7  2  0
  6  7  1  0
  4  8  1  0
  8  9  1  0
  8 10  1  0
 15 21  1  0
 20 21  1  0
  9 16  2  0
 16 17  1  0
 17 18  2  0
 18 19  1  0
 19 20  2  0
 20  9  1  0
 10 11  2  0
 11 12  1  0
 12 13  2  0
 13 14  1  0
 14 15  2  0
 15 10  1  0
M  END
$$$$
