No_1132-complexes_sdf/6BKW-FPZ/2024-09-17-14-21-01/
     RDKit          3D

 16 16  0  0  0  0  0  0  0  0999 V2000
   -7.7129    4.2099   27.0854 C   0  0  0  0  0  0  0  0  0  0  0  0
   -8.9133    4.4736   27.0998 C   0  0  0  0  0  0  0  0  0  0  0  0
   -9.7937    3.7367   26.2091 C   0  0  0  0  0  0  0  0  0  0  0  0
   -7.2496    2.8647   26.8496 C   0  0  0  0  0  0  0  0  0  0  0  0
   -8.1891    1.9790   26.3454 C   0  0  0  0  0  0  0  0  0  0  0  0
   -9.4252    2.4603   26.0121 C   0  0  0  0  0  0  0  0  0  0  0  0
   -9.3121    5.9663   27.2474 C   0  0  0  0  0  0  0  0  0  0  0  0
   -7.7466    0.5946   26.1401 C   0  0  0  0  0  0  0  0  0  0  0  0
   -6.8592    0.0834   26.7806 O   0  0  0  0  0  0  0  0  0  0  0  0
   -8.3325   -0.1310   25.1915 N   0  0  0  0  0  0  0  0  0  0  0  0
   -7.9391   -1.4934   24.9091 C   0  0  0  0  0  0  0  0  0  0  0  0
   -8.8981    6.8587   26.5144 F   0  0  0  0  0  0  0  0  0  0  0  0
  -10.4362    6.1622   27.9562 F   0  0  0  0  0  0  0  0  0  0  0  0
   -8.6627   -1.9786   24.3795 C   0  0  0  0  0  0  0  0  0  0  0  0
   -9.5653   -1.5331   23.5479 C   0  0  0  0  0  0  0  0  0  0  0  0
   -9.9306   -0.1675   23.5834 C   0  0  0  0  0  0  0  0  0  0  0  0
  2  7  1  0
  5  8  1  0
  8  9  1  0
  8 10  2  3
 10 11  1  0
  7 12  1  0
  7 13  1  0
 11 14  1  0
 14 15  2  3
 15 16  1  0
  1  2  2  0
  2  3  1  0
  3  6  2  0
  6  5  1  0
  5  4  2  0
  4  1  1  0
M  END
$$$$
