No_1613-complexes_sdf/6BKW-FPZ/2024-09-17-14-21-01/
     RDKit          3D

 27 31  0  0  0  0  0  0  0  0999 V2000
   -7.7129    4.2099   27.0854 C   0  0  0  0  0  0  0  0  0  0  0  0
   -8.9133    4.4736   27.0998 C   0  0  0  0  0  0  0  0  0  0  0  0
   -9.7937    3.7367   26.2091 C   0  0  1  0  0  0  0  0  0  0  0  0
   -6.8266    5.0441   28.0594 C   0  0  0  0  0  0  0  0  0  0  0  0
  -11.0884    4.1572   25.9278 C   0  0  0  0  0  0  0  0  0  0  0  0
  -11.9277    3.7071   26.3413 C   0  0  0  0  0  0  0  0  0  0  0  0
  -13.3230    4.3254   26.3298 C   0  0  0  0  0  0  0  0  0  0  0  0
   -9.4119    5.6263   27.7982 C   0  0  0  0  0  0  0  0  0  0  0  0
  -14.2267    4.3004   27.3515 C   0  0  0  0  0  0  0  0  0  0  0  0
  -14.0123    3.3146   28.3263 C   0  0  0  0  0  0  0  0  0  0  0  0
  -12.8303    2.6590   28.4607 C   0  0  0  0  0  0  0  0  0  0  0  0
  -11.7887    2.9365   27.5695 C   0  0  0  0  0  0  0  0  0  0  0  0
   -9.2857    2.5994   25.5402 C   0  0  0  0  0  0  0  0  0  0  0  0
   -9.9122    1.3839   25.6571 C   0  0  0  0  0  0  0  0  0  0  0  0
   -9.4144    0.3462   24.9271 C   0  0  0  0  0  0  0  0  0  0  0  0
  -10.0301   -0.8654   24.9842 C   0  0  0  0  0  0  0  0  0  0  0  0
  -11.1639   -1.0034   25.8322 C   0  0  0  0  0  0  0  0  0  0  0  0
  -11.6259    0.0480   26.5677 C   0  0  0  0  0  0  0  0  0  0  0  0
  -10.9755    1.2762   26.5406 C   0  0  0  0  0  0  0  0  0  0  0  0
  -11.4113    2.2033   27.4183 N   0  0  0  0  0  0  0  0  0  0  0  0
  -10.3091    2.0590   28.7706 C   0  0  0  0  0  0  0  0  0  0  0  0
   -8.6010    6.5998   28.3896 C   0  0  0  0  0  0  0  0  0  0  0  0
   -7.2973    6.1795   28.5516 C   0  0  0  0  0  0  0  0  0  0  0  0
  -12.8996    1.5536   29.3092 N   0  0  0  0  0  0  0  0  0  0  0  0
  -13.9208    1.5464   30.2369 C   0  0  0  0  0  0  0  0  0  0  0  0
  -14.9428    2.3830   30.2193 C   0  0  0  0  0  0  0  0  0  0  0  0
  -15.0443    3.3194   29.3278 C   0  0  0  0  0  0  0  0  0  0  0  0
  3  2  1  6
  3  5  1  0
  3 13  1  0
 13 14  1  0
 12 20  1  0
 19 20  1  0
 20 21  1  0
  5  6  1  0
  6  7  2  0
  7  9  1  0
  9 10  2  0
 11 12  2  0
 12  6  1  0
  1  2  2  0
  2  8  1  0
  8 22  2  0
 22 23  1  0
 23  4  2  0
  4  1  1  0
 10 11  1  0
 11 24  1  0
 24 25  2  0
 25 26  1  0
 26 27  2  0
 27 10  1  0
 14 15  2  0
 15 16  1  0
 16 17  2  0
 17 18  1  0
 18 19  2  0
 19 14  1  0
M  END
$$$$
