No_1532-complexes_sdf/6BKW-FPZ/2024-09-17-14-21-01/
     RDKit          3D

 26 28  0  0  0  0  0  0  0  0999 V2000
   -7.2496    3.8871   27.4508 C   0  0  0  0  0  0  0  0  0  0  0  0
   -7.9379    4.9063   27.8518 C   0  0  0  0  0  0  0  0  0  0  0  0
   -9.3460    4.8223   27.8695 C   0  0  0  0  0  0  0  0  0  0  0  0
   -7.8628    2.6163   27.1065 C   0  0  0  0  0  0  0  0  0  0  0  0
   -9.2787    2.5744   27.1970 C   0  0  0  0  0  0  0  0  0  0  0  0
  -10.0108    3.6770   27.6340 C   0  0  0  0  0  0  0  0  0  0  0  0
  -11.4855    3.5731   27.7420 C   0  0  0  0  0  0  0  0  0  0  0  0
  -12.0293    2.8456   27.0189 C   0  0  0  0  0  0  0  0  0  0  0  0
  -13.2110    2.6861   26.9250 C   0  0  0  0  0  0  0  0  0  0  0  0
  -14.1038    3.5503   27.7800 C   0  0  0  0  0  0  0  0  0  0  0  0
  -13.5168    4.4922   28.5600 C   0  0  0  0  0  0  0  0  0  0  0  0
  -12.1397    4.6176   28.5637 C   0  0  0  0  0  0  0  0  0  0  0  0
   -7.0803    1.4717   26.7711 C   0  0  0  0  0  0  0  0  0  0  0  0
   -6.0388    1.1853   27.4808 O   0  0  0  0  0  0  0  0  0  0  0  0
   -7.5083    0.6710   25.9087 O   0  0  0  0  0  0  0  0  0  0  0  0
   -7.3122    6.1115   28.1301 N   0  0  0  0  0  0  0  0  0  0  0  0
   -5.4081   -0.0480   27.5254 C   0  0  0  0  0  0  0  0  0  0  0  0
   -4.7997   -0.3495   28.8333 C   0  0  0  0  0  0  0  0  0  0  0  0
   -3.9054    0.5931   29.3146 C   0  0  0  0  0  0  0  0  0  0  0  0
   -5.3186   -1.3829   29.6575 C   0  0  0  0  0  0  0  0  0  0  0  0
   -3.3142    0.3506   30.6489 C   0  0  0  0  0  0  0  0  0  0  0  0
   -4.7847   -1.5767   30.9453 C   0  0  0  0  0  0  0  0  0  0  0  0
   -3.7564   -0.7138   31.4256 C   0  0  0  0  0  0  0  0  0  0  0  0
   -3.1382   -0.9591   32.7467 C   0  0  0  0  0  0  0  0  0  0  0  0
   -3.9141   -0.9534   33.7240 O   0  0  0  0  0  0  0  0  0  0  0  0
   -1.8345   -0.9245   32.8479 O   0  0  0  0  0  0  0  0  0  0  0  0
  6  7  1  0
  4 13  1  0
 13 14  1  0
 13 15  2  0
  2 16  1  0
 14 17  1  0
 17 18  1  0
 23 24  1  0
 24 25  2  0
 24 26  1  0
  1  2  2  0
  2  3  1  0
  3  6  2  0
  6  5  1  0
  5  4  2  0
  4  1  1  0
 18 19  2  0
 19 21  1  0
 21 23  2  0
 23 22  1  0
 22 20  2  0
 20 18  1  0
  7  8  2  0
  8  9  1  0
  9 10  2  0
 10 11  1  0
 11 12  2  0
 12  7  1  0
M  END
$$$$
