No_1417-complexes_sdf/6BKW-FPZ/2024-09-17-14-21-01/
     RDKit          3D

 29 32  0  0  0  0  0  0  0  0999 V2000
   -7.9040    3.9820   27.1177 C   0  0  0  0  0  0  0  0  0  0  0  0
   -7.8663    4.8694   27.9238 C   0  0  0  0  0  0  0  0  0  0  0  0
   -9.0501    3.8017   26.2617 C   0  0  0  0  0  0  0  0  0  0  0  0
   -9.1826    2.7026   25.3575 C   0  0  0  0  0  0  0  0  0  0  0  0
   -8.6940    6.0131   27.8614 C   0  0  0  0  0  0  0  0  0  0  0  0
   -9.7382    4.9916   26.1006 C   0  0  0  0  0  0  0  0  0  0  0  0
   -9.6356    6.0254   26.9506 C   0  0  0  0  0  0  0  0  0  0  0  0
  -10.1481    2.7508   24.3755 C   0  0  0  0  0  0  0  0  0  0  0  0
  -10.4131    1.5974   23.6243 C   0  0  0  0  0  0  0  0  0  0  0  0
   -9.5273    0.4674   23.7750 C   0  0  0  0  0  0  0  0  0  0  0  0
   -8.4705    1.4498   25.5036 C   0  0  0  0  0  0  0  0  0  0  0  0
   -8.6102    0.4265   24.7450 C   0  0  0  0  0  0  0  0  0  0  0  0
   -9.8259   -0.6366   22.9230 N   0  0  0  0  0  0  0  0  0  0  0  0
   -8.9838   -1.3272   22.4488 C   0  0  0  0  0  0  0  0  0  0  0  0
   -7.6584   -1.2525   22.8540 C   0  0  0  0  0  0  0  0  0  0  0  0
   -7.4693   -0.4493   24.1609 C   0  0  0  0  0  0  0  0  0  0  0  0
   -9.1789   -2.3615   21.4089 C   0  0  0  0  0  0  0  0  0  0  0  0
   -8.3730   -2.7155   20.5948 O   0  0  0  0  0  0  0  0  0  0  0  0
  -10.4474   -2.7686   21.2380 O   0  0  0  0  0  0  0  0  0  0  0  0
  -11.4141    1.6752   22.5939 C   0  0  0  0  0  0  0  0  0  0  0  0
  -12.6105    1.5478   23.1519 N   0  0  0  0  0  0  0  0  0  0  0  0
  -13.1386    2.0377   23.9584 C   0  0  0  0  0  0  0  0  0  0  0  0
  -14.5318    1.5860   24.4324 C   0  0  0  0  0  0  0  0  0  0  0  0
  -13.7002    0.8855   22.3090 C   0  0  0  0  0  0  0  0  0  0  0  0
  -14.8125    0.9236   23.2051 C   0  0  1  0  0  0  0  0  0  0  0  0
  -16.0704    0.2540   22.9112 C   0  0  0  0  0  0  0  0  0  0  0  0
  -17.0372    0.3182   23.5594 O   0  0  0  0  0  0  0  0  0  0  0  0
  -16.1354   -0.3306   21.6743 O   0  0  0  0  0  0  0  0  0  0  0  0
  -11.1150    2.0133   21.4825 O   0  0  0  0  0  0  0  0  0  0  0  0
  3  4  1  0
 14 17  1  0
 17 18  2  0
 17 19  1  0
  9 20  1  0
 20 21  1  0
 21 22  1  0
 22 23  2  0
 21 24  1  0
 23 25  1  0
 24 25  1  0
 25 26  1  1
 26 27  2  0
 26 28  1  0
 20 29  2  0
  4  8  2  0
  8  9  1  0
  9 10  2  0
 12 11  2  0
 11  4  1  0
 10 12  1  0
 12 16  1  0
 16 15  2  0
 15 14  1  0
 14 13  2  0
 13 10  1  0
  1  2  2  0
  2  5  1  0
  5  7  2  0
  7  6  1  0
  6  3  2  0
  3  1  1  0
M  END
$$$$
