No_1178-complexes_sdf/6BKW-FPZ/2024-09-17-14-21-01/
     RDKit          3D

 17 18  0  0  0  0  0  0  0  0999 V2000
   -7.2496    3.8871   27.4508 C   0  0  0  0  0  0  0  0  0  0  0  0
   -7.6161    2.7143   27.1523 C   0  0  0  0  0  0  0  0  0  0  0  0
   -7.1618    1.8631   27.5232 C   0  0  0  0  0  0  0  0  0  0  0  0
   -8.0384    5.0866   27.3232 C   0  0  0  0  0  0  0  0  0  0  0  0
   -9.1223    5.1097   26.4856 C   0  0  0  0  0  0  0  0  0  0  0  0
   -8.9186    2.6660   26.4794 C   0  0  0  0  0  0  0  0  0  0  0  0
   -9.6149    3.8296   26.1383 C   0  0  0  0  0  0  0  0  0  0  0  0
   -5.7280    1.8487   28.0286 C   0  0  0  0  0  0  0  0  0  0  0  0
   -5.1429    3.1377   28.1553 C   0  0  0  0  0  0  0  0  0  0  0  0
   -5.9433    4.0890   28.0363 N   0  0  0  0  0  0  0  0  0  0  0  0
   -4.8836    0.6485   28.2721 C   0  0  0  0  0  0  0  0  0  0  0  0
   -4.7168    0.3517   29.4209 O   0  0  0  0  0  0  0  0  0  0  0  0
   -4.3131    0.0118   27.2728 N   0  0  0  0  0  0  0  0  0  0  0  0
   -3.3692   -1.0853   27.4379 C   0  0  0  0  0  0  0  0  0  0  0  0
  -10.8280    3.7749   25.2970 C   0  0  0  0  0  0  0  0  0  0  0  0
  -10.8101    3.9404   23.8632 C   0  0  0  0  0  0  0  0  0  0  0  0
  -11.9835    3.9464   23.1109 C   0  0  0  0  0  0  0  0  0  0  0  0
  8 11  1  0
 11 12  2  0
 11 13  1  0
 13 14  1  0
  7 15  1  0
 15 16  2  3
 16 17  1  0
  2  6  1  0
  6  7  2  0
  7  5  1  0
  5  4  2  0
  4  1  1  0
  1  2  1  0
  2  3  2  0
  3  8  1  0
  8  9  2  0
  9 10  1  0
 10  1  2  0
M  END
$$$$
