No_1242-complexes_sdf/6BKW-FPZ/2024-09-17-14-21-01/
     RDKit          3D

 24 26  0  0  0  0  0  0  0  0999 V2000
   -7.2496    3.8871   27.4508 C   0  0  0  0  0  0  0  0  0  0  0  0
   -7.6161    2.7143   27.1523 C   0  0  0  0  0  0  0  0  0  0  0  0
   -8.6212    2.2239   26.4074 C   0  0  0  0  0  0  0  0  0  0  0  0
   -8.2540    4.9237   27.1711 C   0  0  0  0  0  0  0  0  0  0  0  0
   -9.3729    4.5806   26.4433 C   0  0  0  0  0  0  0  0  0  0  0  0
   -9.5830    3.2969   26.1026 C   0  0  0  0  0  0  0  0  0  0  0  0
   -7.9331    6.3206   27.5425 C   0  0  0  0  0  0  0  0  0  0  0  0
   -8.9192    7.1951   27.4199 F   0  0  0  0  0  0  0  0  0  0  0  0
   -7.5356    6.3752   28.8756 F   0  0  0  0  0  0  0  0  0  0  0  0
   -6.8849    6.8115   26.8699 F   0  0  0  0  0  0  0  0  0  0  0  0
   -6.5763    1.5801   27.5605 C   0  0  0  0  0  0  0  0  0  0  0  0
   -5.3104    1.8878   28.1164 C   0  0  0  0  0  0  0  0  0  0  0  0
   -4.4091    0.8708   28.4348 C   0  0  0  0  0  0  0  0  0  0  0  0
   -3.1768    1.0753   28.9381 C   0  0  0  0  0  0  0  0  0  0  0  0
   -5.0936   -0.4074   28.7057 C   0  0  0  0  0  0  0  0  0  0  0  0
   -6.3380   -0.7045   28.2074 C   0  0  0  0  0  0  0  0  0  0  0  0
   -7.1229    0.3119   27.6741 C   0  0  0  0  0  0  0  0  0  0  0  0
  -10.7619    2.9907   25.2753 C   0  0  0  0  0  0  0  0  0  0  0  0
  -10.8958    3.5909   24.1057 C   0  0  0  0  0  0  0  0  0  0  0  0
  -11.9804    3.3808   23.2165 C   0  0  0  0  0  0  0  0  0  0  0  0
  -11.9236    3.8997   21.9620 C   0  0  0  0  0  0  0  0  0  0  0  0
  -10.8224    4.7466   21.5312 C   0  0  0  0  0  0  0  0  0  0  0  0
   -9.9095    5.1194   22.5105 C   0  0  0  0  0  0  0  0  0  0  0  0
   -9.8533    4.5670   23.6651 C   0  0  0  0  0  0  0  0  0  0  0  0
  4  7  1  0
  7  8  1  0
  7  9  1  0
  7 10  1  0
  2 11  1  0
  6 18  1  0
 18 19  1  0
 14 13  1  0
  1  2  2  0
  2  3  1  0
  3  6  2  0
  6  5  1  0
  5  4  2  0
  4  1  1  0
 11 12  2  0
 12 13  1  0
 13 15  2  0
 15 16  1  0
 16 17  2  0
 17 11  1  0
 19 20  2  0
 20 21  1  0
 21 22  2  0
 22 23  1  0
 23 24  2  0
 24 19  1  0
M  END
$$$$
