No_1696-complexes_sdf/6BKW-FPZ/2024-09-17-14-21-01/
     RDKit          3D

 16 17  0  0  0  0  0  0  0  0999 V2000
   -7.9040    3.9820   27.1177 C   0  0  0  0  0  0  0  0  0  0  0  0
   -9.0711    4.3164   27.0630 C   0  0  0  0  0  0  0  0  0  0  0  0
   -9.5294    5.4517   27.7215 C   0  0  0  0  0  0  0  0  0  0  0  0
   -7.4336    2.7132   26.5681 C   0  0  0  0  0  0  0  0  0  0  0  0
   -8.3353    1.8569   26.0442 C   0  0  0  0  0  0  0  0  0  0  0  0
   -9.6477    2.2853   25.9146 C   0  0  0  0  0  0  0  0  0  0  0  0
  -10.0346    3.4497   26.4483 C   0  0  0  0  0  0  0  0  0  0  0  0
   -7.8608    0.5626   25.5840 C   0  0  0  0  0  0  0  0  0  0  0  0
   -6.9268   -0.1385   26.3326 C   0  0  0  0  0  0  0  0  0  0  0  0
   -6.5464    0.4067   27.6629 C   0  0  0  0  0  0  0  0  0  0  0  0
   -5.5407   -0.2714   28.3984 C   0  0  0  0  0  0  0  0  0  0  0  0
   -5.2006   -1.5096   28.0600 C   0  0  0  0  0  0  0  0  0  0  0  0
   -5.6560   -2.0757   26.8715 C   0  0  0  0  0  0  0  0  0  0  0  0
   -6.5043   -1.3799   26.0275 C   0  0  0  0  0  0  0  0  0  0  0  0
   -5.0918    0.3021   29.5803 O   0  0  0  0  0  0  0  0  0  0  0  0
   -3.8759    1.0063   29.3892 C   0  0  0  0  0  0  0  0  0  0  0  0
  5  8  1  0
 11 15  1  0
 15 16  1  0
  3  2  1  0
  8  9  1  0
  1  2  2  0
  2  7  1  0
  7  6  2  0
  6  5  1  0
  5  4  2  0
  4  1  1  0
  9 10  2  0
 10 11  1  0
 11 12  2  0
 12 13  1  0
 13 14  2  0
 14  9  1  0
M  END
$$$$
