No_1500-complexes_sdf/6BKW-FPZ/2024-09-17-14-21-01/
     RDKit          3D

 19 19  0  0  0  0  0  0  0  0999 V2000
   -7.7129    4.2099   27.0854 C   0  0  0  0  0  0  0  0  0  0  0  0
   -8.9133    4.4736   27.0998 C   0  0  2  0  0  0  0  0  0  0  0  0
   -9.7135    3.9633   26.0300 C   0  0  0  0  0  0  0  0  0  0  0  0
   -6.8420    4.9760   28.0851 C   0  0  0  0  0  0  0  0  0  0  0  0
   -9.6552    4.2399   24.9004 C   0  0  0  0  0  0  0  0  0  0  0  0
  -10.4285    3.7872   23.7716 C   0  0  0  0  0  0  0  0  0  0  0  0
  -10.3014    4.2743   22.4915 C   0  0  2  0  0  0  0  0  0  0  0  0
  -10.9516    2.4571   24.0288 C   0  0  0  0  0  0  0  0  0  0  0  0
  -11.1150    2.0165   25.3346 C   0  0  0  0  0  0  0  0  0  0  0  0
  -10.4408    2.7151   26.3900 C   0  0  0  0  0  0  0  0  0  0  0  0
   -9.4800    5.4439   27.9521 C   0  0  0  0  0  0  0  0  0  0  0  0
  -10.6129    5.9955   22.3131 Br  0  0  0  0  0  0  0  0  0  0  0  0
  -10.1469    3.4681   21.3394 C   0  0  0  0  0  0  0  0  0  0  0  0
  -10.2720    3.9028   20.0357 C   0  0  0  0  0  0  0  0  0  0  0  0
   -9.8188    2.0577   21.5283 C   0  0  0  0  0  0  0  0  0  0  0  0
  -10.4805    1.0650   20.7947 C   0  0  0  0  0  0  0  0  0  0  0  0
  -10.1141   -0.2712   21.0481 C   0  0  0  0  0  0  0  0  0  0  0  0
   -9.0720   -0.5499   21.9449 C   0  0  0  0  0  0  0  0  0  0  0  0
   -8.4301    0.4271   22.6683 C   0  0  0  0  0  0  0  0  0  0  0  0
  1  2  1  0
  2  3  1  0
  1  4  1  0
  2 11  1  6
  7 12  1  6
  7 13  1  0
 13 14  1  0
 13 15  1  0
 15 16  2  3
 16 17  1  0
 17 18  2  3
 18 19  1  0
  7  6  1  0
  3  5  2  0
  5  6  1  0
  6  8  2  0
  8  9  1  0
  9 10  2  0
 10  3  1  0
M  END
$$$$
