No_1092-complexes_sdf/6BKW-FPZ/2024-09-17-14-21-01/
     RDKit          3D

 19 20  0  0  0  0  0  0  0  0999 V2000
   -7.9040    3.9820   27.1177 C   0  0  0  0  0  0  0  0  0  0  0  0
   -7.8663    4.8694   27.9238 C   0  0  0  0  0  0  0  0  0  0  0  0
   -9.0501    3.8017   26.2617 C   0  0  0  0  0  0  0  0  0  0  0  0
   -9.1826    2.7026   25.3575 C   0  0  0  0  0  0  0  0  0  0  0  0
   -8.6940    6.0131   27.8614 C   0  0  0  0  0  0  0  0  0  0  0  0
   -9.9755    4.8547   26.2361 C   0  0  0  0  0  0  0  0  0  0  0  0
   -9.7463    5.9398   27.0364 C   0  0  0  0  0  0  0  0  0  0  0  0
   -8.7003    1.4603   25.7663 C   0  0  0  0  0  0  0  0  0  0  0  0
   -8.8305    0.3583   24.9242 C   0  0  0  0  0  0  0  0  0  0  0  0
   -9.4370    0.5654   23.6656 C   0  0  0  0  0  0  0  0  0  0  0  0
   -9.7512    2.7803   24.1569 C   0  0  2  0  0  0  0  0  0  0  0  0
   -9.8540    1.7834   23.2854 C   0  0  0  0  0  0  0  0  0  0  0  0
  -10.2921    4.3489   23.5365 Cl  0  0  0  0  0  0  0  0  0  0  0  0
  -10.7631    2.9331   24.0831 C   0  0  1  0  0  0  0  0  0  0  0  0
  -10.1219    1.6418   21.8550 C   0  0  0  0  0  0  0  0  0  0  0  0
   -8.5051    1.8534   22.9240 C   0  0  0  0  0  0  0  0  0  0  0  0
  -12.0224    2.6810   24.1899 N   0  0  0  0  0  0  0  0  0  0  0  0
  -11.0108    2.3490   25.2671 O   0  0  0  0  0  0  0  0  0  0  0  0
   -8.5457    1.2050   21.4739 C   0  0  0  0  0  0  0  0  0  0  0  0
  3  4  1  0
  4  8  2  3
  8  9  1  0
  9 10  2  3
  4 11  1  0
 10 12  1  0
 11 13  1  6
 11 14  1  0
 12 15  1  0
 12 16  1  0
 14 17  1  6
 14 18  1  0
 15 19  1  0
 16 19  1  0
  1  2  2  0
  2  5  1  0
  5  7  2  0
  7  6  1  0
  6  3  2  0
  3  1  1  0
M  END
$$$$
