No_173-complexes_sdf/6BKW-FPZ/2024-09-17-14-21-01/
     RDKit          3D

 16 17  0  0  0  0  0  0  0  0999 V2000
   -7.9040    3.9820   27.1177 C   0  0  0  0  0  0  0  0  0  0  0  0
   -8.2057    2.8231   26.8733 C   0  0  0  0  0  0  0  0  0  0  0  0
   -9.2962    2.4021   26.1155 C   0  0  0  0  0  0  0  0  0  0  0  0
   -8.7358    5.0662   26.5917 C   0  0  0  0  0  0  0  0  0  0  0  0
   -9.7618    4.7023   25.7546 C   0  0  0  0  0  0  0  0  0  0  0  0
  -10.0066    3.4105   25.4922 C   0  0  0  0  0  0  0  0  0  0  0  0
   -8.4388    6.3309   26.8587 F   0  0  0  0  0  0  0  0  0  0  0  0
   -9.5336    0.9771   25.8274 C   0  0  0  0  0  0  0  0  0  0  0  0
   -8.9950    0.3689   24.9423 C   0  0  0  0  0  0  0  0  0  0  0  0
   -9.1904   -1.0468   24.6642 C   0  0  0  0  0  0  0  0  0  0  0  0
  -10.0199   -1.7201   25.5574 C   0  0  0  0  0  0  0  0  0  0  0  0
  -10.3216    0.2017   26.7632 C   0  0  0  0  0  0  0  0  0  0  0  0
  -10.5585   -1.0884   26.6752 C   0  0  0  0  0  0  0  0  0  0  0  0
  -10.8041    0.8916   27.9002 F   0  0  0  0  0  0  0  0  0  0  0  0
   -6.8787    4.4641   27.9504 O   0  0  0  0  0  0  0  0  0  0  0  0
   -7.0155    5.5163   28.7232 C   0  0  0  0  0  0  0  0  0  0  0  0
  4  7  1  0
  3  8  1  0
 12 14  1  0
  1 15  1  0
 15 16  1  0
  1  2  2  0
  2  3  1  0
  3  6  2  0
  6  5  1  0
  5  4  2  0
  4  1  1  0
  8  9  2  0
  9 10  1  0
 10 11  2  0
 11 13  1  0
 13 12  2  0
 12  8  1  0
M  END
$$$$
