No_1325-complexes_sdf/6BKW-FPZ/2024-09-17-14-21-01/
     RDKit          3D

 20 23  0  0  0  0  0  0  0  0999 V2000
   -7.7129    4.2099   27.0854 C   0  0  0  0  0  0  0  0  0  0  0  0
   -8.9133    4.4736   27.0998 C   0  0  0  0  0  0  0  0  0  0  0  0
   -9.4643    5.5426   27.7628 C   0  0  0  0  0  0  0  0  0  0  0  0
   -6.8373    4.9942   27.9785 C   0  0  0  0  0  0  0  0  0  0  0  0
   -7.3717    6.0428   28.6744 C   0  0  0  0  0  0  0  0  0  0  0  0
   -8.6869    6.3937   28.5345 C   0  0  0  0  0  0  0  0  0  0  0  0
   -9.8077    3.6185   26.2213 C   0  0  0  0  0  0  0  0  0  0  0  0
   -9.9184    4.0253   24.8835 C   0  0  0  0  0  0  0  0  0  0  0  0
  -10.5346    3.2895   23.9116 C   0  0  0  0  0  0  0  0  0  0  0  0
  -11.0477    2.0486   24.2561 C   0  0  0  0  0  0  0  0  0  0  0  0
  -10.2679    2.3683   26.5309 C   0  0  0  0  0  0  0  0  0  0  0  0
  -10.9124    1.5391   25.5926 C   0  0  0  0  0  0  0  0  0  0  0  0
  -10.0836    1.8407   27.9097 C   0  0  0  0  0  0  0  0  0  0  0  0
  -10.0597    0.4505   28.1138 C   0  0  0  0  0  0  0  0  0  0  0  0
  -10.8389   -0.3392   27.2569 C   0  0  0  0  0  0  0  0  0  0  0  0
  -11.1973    0.1475   25.8081 C   0  0  0  0  0  0  0  0  0  0  0  0
  -11.8321   -0.7133   24.9858 C   0  0  0  0  0  0  0  0  0  0  0  0
  -12.1550   -1.7693   25.2194 C   0  0  0  0  0  0  0  0  0  0  0  0
  -11.1596   -1.6218   27.5621 C   0  0  0  0  0  0  0  0  0  0  0  0
  -11.8894   -2.4078   26.5879 C   0  0  0  0  0  0  0  0  0  0  0  0
  2  7  1  0
  7  8  2  0
  8  9  1  0
  9 10  2  0
 10 12  1  0
 11  7  1  0
 11 12  2  0
 12 16  1  0
 15 14  1  0
 14 13  2  0
 13 11  1  0
  1  2  2  0
  2  3  1  0
  3  6  2  0
  6  5  1  0
  5  4  2  0
  4  1  1  0
 15 16  2  0
 16 17  1  0
 17 18  2  0
 18 20  1  0
 20 19  2  0
 19 15  1  0
M  END
$$$$
