No_1868-complexes_sdf/6BKW-FPZ/2024-09-17-14-21-01/
     RDKit          3D

 13 14  0  0  0  0  0  0  0  0999 V2000
   -7.7129    4.2099   27.0854 C   0  0  0  0  0  0  0  0  0  0  0  0
   -8.9133    4.4736   27.0998 C   0  0  2  0  0  0  0  0  0  0  0  0
   -9.7135    3.9633   26.0300 C   0  0  0  0  0  0  0  0  0  0  0  0
   -7.2585    2.8371   26.9278 C   0  0  0  0  0  0  0  0  0  0  0  0
   -9.4798    2.6045   25.7571 C   0  0  1  0  0  0  0  0  0  0  0  0
   -8.3708    1.9533   26.7403 C   0  0  0  0  0  0  0  0  0  0  0  0
  -10.5763    1.7064   25.5581 C   0  0  0  0  0  0  0  0  0  0  0  0
  -11.4998    1.5003   26.4275 C   0  0  0  0  0  0  0  0  0  0  0  0
  -12.2506    0.5043   26.4812 C   0  0  0  0  0  0  0  0  0  0  0  0
  -10.5038    1.1517   24.2837 C   0  0  0  0  0  0  0  0  0  0  0  0
  -11.5314    0.0432   24.1347 C   0  0  0  0  0  0  0  0  0  0  0  0
  -12.4158   -0.2036   25.1581 C   0  0  0  0  0  0  0  0  0  0  0  0
   -9.0255    6.1445   27.1073 C   0  0  0  0  0  0  0  0  0  0  0  0
  1  2  1  0
  2  3  1  0
  1  4  1  0
  3  5  1  0
  4  6  1  0
  5  6  1  0
  5  7  1  1
  2 13  1  6
  7  8  2  0
  8  9  1  0
  9 12  2  0
 12 11  1  0
 11 10  2  0
 10  7  1  0
M  END
$$$$
