No_1714-complexes_sdf/6BKW-FPZ/2024-09-17-14-21-01/
     RDKit          3D

 20 22  0  0  0  0  0  0  0  0999 V2000
   -7.7129    4.2099   27.0854 C   0  0  0  0  0  0  0  0  0  0  0  0
   -7.7814    5.1722   27.8972 C   0  0  0  0  0  0  0  0  0  0  0  0
   -8.8998    3.8713   26.3707 C   0  0  0  0  0  0  0  0  0  0  0  0
   -8.9563    2.6796   25.5490 C   0  0  0  0  0  0  0  0  0  0  0  0
   -8.8131    6.1334   27.9344 C   0  0  0  0  0  0  0  0  0  0  0  0
   -9.9804    5.8121   27.1929 C   0  0  0  0  0  0  0  0  0  0  0  0
   -9.9861    4.6836   26.4532 C   0  0  0  0  0  0  0  0  0  0  0  0
   -9.8352    2.5435   24.5126 C   0  0  0  0  0  0  0  0  0  0  0  0
   -9.8680    1.4155   23.7412 C   0  0  0  0  0  0  0  0  0  0  0  0
   -8.8988    0.3731   23.9922 C   0  0  0  0  0  0  0  0  0  0  0  0
   -8.0409    0.4782   25.0443 C   0  0  0  0  0  0  0  0  0  0  0  0
   -8.0131    1.6137   25.8514 C   0  0  0  0  0  0  0  0  0  0  0  0
  -10.7637    1.2925   22.5981 C   0  0  0  0  0  0  0  0  0  0  0  0
  -10.8873    2.2900   21.8046 C   0  0  0  0  0  0  0  0  0  0  0  0
  -10.4277    3.4143   21.9295 C   0  0  0  0  0  0  0  0  0  0  0  0
  -10.3317    4.2300   23.1659 C   0  0  0  0  0  0  0  0  0  0  0  0
   -9.6133    3.9868   24.1093 C   0  0  0  0  0  0  0  0  0  0  0  0
   -9.0776    4.7924   24.4727 C   0  0  0  0  0  0  0  0  0  0  0  0
  -10.0980    5.2463   25.1982 F   0  0  0  0  0  0  0  0  0  0  0  0
  -11.2493    3.8877   26.8444 C   0  0  0  0  0  0  0  0  0  0  0  0
  3  4  1  0
  9 13  1  0
 13 14  1  0
 14 15  2  0
 15 16  1  0
  8 17  1  0
 16 17  2  0
 17 18  1  0
 18 19  1  0
  7 20  1  0
  4  8  2  0
  8  9  1  0
  9 10  2  0
 10 11  1  0
 11 12  2  0
 12  4  1  0
  1  2  2  0
  2  5  1  0
  5  6  2  0
  6  7  1  0
  7  3  2  0
  3  1  1  0
M  END
$$$$
