No_1999-complexes_sdf/6BKW-FPZ/2024-09-17-14-21-01/
     RDKit          3D

 20 22  0  0  0  0  0  0  0  0999 V2000
   -7.2496    3.8871   27.4508 C   0  0  0  0  0  0  0  0  0  0  0  0
   -8.5096    4.0291   27.2770 C   0  0  0  0  0  0  0  0  0  0  0  0
   -9.3451    2.8786   26.9046 C   0  0  0  0  0  0  0  0  0  0  0  0
   -6.6065    2.5680   27.5073 C   0  0  0  0  0  0  0  0  0  0  0  0
   -7.3970    1.4834   27.2271 C   0  0  0  0  0  0  0  0  0  0  0  0
   -8.7029    1.6398   26.9934 C   0  0  0  0  0  0  0  0  0  0  0  0
   -9.1106    5.3702   27.2076 C   0  0  0  0  0  0  0  0  0  0  0  0
   -8.2923    6.5067   27.0515 C   0  0  0  0  0  0  0  0  0  0  0  0
   -6.7528    0.1818   27.3050 C   0  0  0  0  0  0  0  0  0  0  0  0
   -5.4800    0.0953   27.8425 C   0  0  0  0  0  0  0  0  0  0  0  0
   -4.8448   -1.1553   27.9890 C   0  0  0  0  0  0  0  0  0  0  0  0
   -3.6415   -1.1508   28.7750 C   0  0  0  0  0  0  0  0  0  0  0  0
   -3.0335    0.0308   29.2261 C   0  0  0  0  0  0  0  0  0  0  0  0
   -3.7530    1.2418   29.0745 C   0  0  0  0  0  0  0  0  0  0  0  0
   -4.9244    1.2438   28.4560 C   0  0  0  0  0  0  0  0  0  0  0  0
   -5.5425    2.4772   28.1800 N   0  0  0  0  0  0  0  0  0  0  0  0
   -8.7950    7.8249   26.7928 C   0  0  0  0  0  0  0  0  0  0  0  0
   -9.5662    0.4695   26.6050 C   0  0  0  0  0  0  0  0  0  0  0  0
  -10.8933    0.4721   26.7550 C   0  0  0  0  0  0  0  0  0  0  0  0
  -11.5131    1.4836   27.2209 C   0  0  0  0  0  0  0  0  0  0  0  0
  2  7  1  0
  7  8  1  0
  8 17  2  0
  6 18  1  0
 18 19  2  3
 19 20  1  0
  1  2  2  0
  2  3  1  0
  3  6  2  0
  6  5  1  0
  4  1  1  0
 10 11  1  0
 11 12  2  0
 12 13  1  0
 13 14  2  0
 14 15  1  0
  4  5  2  0
  5  9  1  0
  9 10  2  0
 10 15  1  0
 15 16  2  0
 16  4  1  0
M  END
$$$$
