No_1648-complexes_sdf/6BKW-FPZ/2024-09-17-14-21-01/
     RDKit          3D

 23 24  0  0  0  0  0  0  0  0999 V2000
   -7.9040    3.9820   27.1177 C   0  0  0  0  0  0  0  0  0  0  0  0
   -7.8663    4.8694   27.9238 C   0  0  0  0  0  0  0  0  0  0  0  0
   -9.0501    3.8017   26.2617 C   0  0  0  0  0  0  0  0  0  0  0  0
  -10.0189    4.7608   26.3707 C   0  0  0  0  0  0  0  0  0  0  0  0
   -8.6973    5.9722   27.8968 C   0  0  0  0  0  0  0  0  0  0  0  0
   -9.8216    5.8946   27.1241 C   0  0  0  0  0  0  0  0  0  0  0  0
   -9.1704    2.4454   25.2686 Cl  0  0  0  0  0  0  0  0  0  0  0  0
   -7.1002    2.8506   27.0207 O   0  0  0  0  0  0  0  0  0  0  0  0
   -6.2304    2.7576   28.1226 C   0  0  0  0  0  0  0  0  0  0  0  0
   -5.6493    1.3984   28.1477 C   0  0  0  0  0  0  0  0  0  0  0  0
   -4.4754    1.2187   28.9381 C   0  0  0  0  0  0  0  0  0  0  0  0
   -4.0269   -0.0298   29.0655 C   0  0  0  0  0  0  0  0  0  0  0  0
   -4.6105   -1.1167   28.4630 C   0  0  0  0  0  0  0  0  0  0  0  0
   -5.7301   -0.9233   27.6672 C   0  0  0  0  0  0  0  0  0  0  0  0
   -6.2478    0.3635   27.4938 C   0  0  0  0  0  0  0  0  0  0  0  0
   -2.8593   -0.4672   29.9205 C   0  0  0  0  0  0  0  0  0  0  0  0
   -1.7313   -0.3311   29.3573 F   0  0  0  0  0  0  0  0  0  0  0  0
   -2.9915   -1.6354   30.5623 F   0  0  0  0  0  0  0  0  0  0  0  0
   -2.8278    0.4673   31.0594 F   0  0  0  0  0  0  0  0  0  0  0  0
   -6.4320   -2.0232   27.0185 C   0  0  0  0  0  0  0  0  0  0  0  0
   -6.7804   -2.9499   27.3208 C   0  0  0  0  0  0  0  0  0  0  0  0
   -7.4089   -3.8700   27.3082 C   0  0  0  0  0  0  0  0  0  0  0  0
   -7.9064   -4.1083   26.0400 N   0  0  0  0  0  0  0  0  0  0  0  0
  3  7  1  0
  1  8  1  0
  8  9  1  0
 12 16  1  0
 16 17  1  0
 16 18  1  0
 16 19  1  0
 14 20  1  0
 20 21  2  3
 21 22  1  0
 22 23  2  0
  9 10  1  0
  1  2  2  0
  2  5  1  0
  5  6  2  0
  6  4  1  0
  4  3  2  0
  3  1  1  0
 10 11  2  0
 11 12  1  0
 12 13  2  0
 13 14  1  0
 14 15  2  0
 15 10  1  0
M  END
$$$$
