No_1799-complexes_sdf/6BKW-FPZ/2024-09-17-14-21-01/
     RDKit          3D

 15 15  0  0  0  0  0  0  0  0999 V2000
   -7.9040    3.9820   27.1177 C   0  0  0  0  0  0  0  0  0  0  0  0
   -7.8663    4.8694   27.9238 C   0  0  0  0  0  0  0  0  0  0  0  0
   -9.0806    3.1428   27.1220 C   0  0  1  0  0  0  0  0  0  0  0  0
   -8.9544    1.8782   26.5468 C   0  0  0  0  0  0  0  0  0  0  0  0
   -6.7151    5.8072   27.9111 C   0  0  0  0  0  0  0  0  0  0  0  0
   -7.9998    1.0534   27.0438 C   0  0  0  0  0  0  0  0  0  0  0  0
   -7.7933   -0.2845   26.6226 C   0  0  0  0  0  0  0  0  0  0  0  0
   -6.9130   -1.0689   27.2516 C   0  0  0  0  0  0  0  0  0  0  0  0
   -5.9006   -0.5192   28.0527 C   0  0  0  0  0  0  0  0  0  0  0  0
   -5.8509    0.8959   28.2283 C   0  0  0  0  0  0  0  0  0  0  0  0
   -6.8100    1.6409   27.7593 C   0  0  0  0  0  0  0  0  0  0  0  0
  -10.2520    3.5549   27.8363 C   0  0  0  0  0  0  0  0  0  0  0  0
  -11.2748    3.9964   27.1256 C   0  0  0  0  0  0  0  0  0  0  0  0
  -12.5079    4.2441   27.8381 C   0  0  0  0  0  0  0  0  0  0  0  0
  -13.6585    4.7424   27.2093 C   0  0  0  0  0  0  0  0  0  0  0  0
  1  2  1  0
  3  1  1  1
  3  4  1  0
  2  5  1  0
  4  6  1  0
  3 12  1  0
 12 13  1  0
 13 14  2  3
 14 15  1  0
  6  7  2  0
  7  8  1  0
  8  9  2  0
  9 10  1  0
 10 11  2  0
 11  6  1  0
M  END
$$$$
