No_1968-complexes_sdf/6BKW-FPZ/2024-09-17-14-21-01/
     RDKit          3D

 30 33  0  0  0  0  0  0  0  0999 V2000
   -7.9040    3.9820   27.1177 C   0  0  0  0  0  0  0  0  0  0  0  0
   -8.2057    2.8231   26.8733 C   0  0  0  0  0  0  0  0  0  0  0  0
   -7.0130    4.3706   28.1140 C   0  0  0  0  0  0  0  0  0  0  0  0
   -9.3829    2.4374   26.1668 C   0  0  0  0  0  0  0  0  0  0  0  0
  -10.0975    3.4171   25.5988 C   0  0  0  0  0  0  0  0  0  0  0  0
   -9.7335    4.7745   25.7705 C   0  0  0  0  0  0  0  0  0  0  0  0
   -8.7317    5.1107   26.5933 C   0  0  0  0  0  0  0  0  0  0  0  0
   -8.3983    6.4679   26.8933 C   0  0  0  0  0  0  0  0  0  0  0  0
   -9.1892    7.5617   26.5156 C   0  0  0  0  0  0  0  0  0  0  0  0
   -7.3720    6.6244   27.9722 C   0  0  0  0  0  0  0  0  0  0  0  0
   -6.7660    5.6599   28.4442 N   0  0  0  0  0  0  0  0  0  0  0  0
   -9.6458    1.0229   25.8137 C   0  0  2  0  0  0  0  0  0  0  0  0
   -9.6704    0.6273   24.7733 C   0  0  0  0  0  0  0  0  0  0  0  0
   -8.8846    0.3497   24.0866 C   0  0  0  0  0  0  0  0  0  0  0  0
   -7.4901    0.2087   24.6306 C   0  0  0  0  0  0  0  0  0  0  0  0
  -10.6726    0.5783   26.9028 C   0  0  2  0  0  0  0  0  0  0  0  0
  -10.2780    0.5397   28.2802 C   0  0  0  0  0  0  0  0  0  0  0  0
  -11.1167   -0.8649   26.4466 C   0  0  1  0  0  0  0  0  0  0  0  0
  -11.8512    1.4991   26.6633 C   0  0  0  0  0  0  0  0  0  0  0  0
  -12.9886    0.8688   27.2391 C   0  0  0  0  0  0  0  0  0  0  0  0
  -10.1371   -1.7816   26.8401 C   0  0  0  0  0  0  0  0  0  0  0  0
  -12.3828   -1.0858   27.2122 C   0  0  0  0  0  0  0  0  0  0  0  0
  -13.5440   -0.3177   26.8784 C   0  0  0  0  0  0  0  0  0  0  0  0
   -8.7136    0.5525   22.6389 C   0  0  0  0  0  0  0  0  0  0  0  0
  -11.0317    0.4858   24.0650 C   0  0  0  0  0  0  0  0  0  0  0  0
  -11.0354    0.5742   22.6093 C   0  0  0  0  0  0  0  0  0  0  0  0
   -9.9042    0.3628   21.9146 C   0  0  0  0  0  0  0  0  0  0  0  0
   -9.4577   -1.9185   27.9411 C   0  0  0  0  0  0  0  0  0  0  0  0
   -8.4344   -2.8632   28.2441 C   0  0  0  0  0  0  0  0  0  0  0  0
   -7.7632   -2.7611   29.4581 C   0  0  0  0  0  0  0  0  0  0  0  0
  8  9  1  0
 12  4  1  6
 12 13  1  0
 14 15  1  0
 12 16  1  0
 16 17  1  1
 16 18  1  0
 16 19  1  0
 18 21  1  0
 18 22  1  1
 20 23  1  0
 22 23  1  0
 21 28  2  3
 28 29  1  0
 29 30  2  0
 20 19  1  0
  1  3  1  0
  3 11  2  0
 11 10  1  0
 10  8  2  0
  8  7  1  0
 13 14  2  0
 14 24  1  0
 24 27  2  0
 27 26  1  0
 26 25  2  0
 25 13  1  0
  1  2  2  0
  2  4  1  0
  4  5  2  0
  5  6  1  0
  6  7  2  0
  7  1  1  0
M  END
$$$$
