No_1671-complexes_sdf/6BKW-FPZ/2024-09-17-14-21-01/
     RDKit          3D

 39 44  0  0  0  0  0  0  0  0999 V2000
   -7.7129    4.2099   27.0854 C   0  0  0  0  0  0  0  0  0  0  0  0
   -8.9133    4.4736   27.0998 C   0  0  1  0  0  0  0  0  0  0  0  0
   -9.4643    5.5426   27.7628 C   0  0  0  0  0  0  0  0  0  0  0  0
   -9.8091    3.6358   26.2841 C   0  0  2  0  0  0  0  0  0  0  0  0
  -10.3717    2.5594   26.9241 C   0  0  0  0  0  0  0  0  0  0  0  0
  -10.9894    1.7053   26.4703 C   0  0  0  0  0  0  0  0  0  0  0  0
   -6.8295    4.9035   28.0852 C   0  0  0  0  0  0  0  0  0  0  0  0
  -11.5199    0.4963   27.2489 C   0  0  0  0  0  0  0  0  0  0  0  0
  -11.2453    0.5186   28.5908 C   0  0  0  0  0  0  0  0  0  0  0  0
  -10.5564    1.5901   29.1273 C   0  0  0  0  0  0  0  0  0  0  0  0
  -10.0700    2.5861   28.4092 C   0  0  0  0  0  0  0  0  0  0  0  0
   -9.9914    3.9301   24.9213 C   0  0  0  0  0  0  0  0  0  0  0  0
  -10.2461    2.8197   24.0881 C   0  0  0  0  0  0  0  0  0  0  0  0
  -10.4978    2.8753   22.7196 C   0  0  0  0  0  0  0  0  0  0  0  0
  -10.5192    4.1743   22.1557 C   0  0  0  0  0  0  0  0  0  0  0  0
  -10.3996    5.3294   23.0342 C   0  0  0  0  0  0  0  0  0  0  0  0
  -10.1405    5.1967   24.3321 C   0  0  0  0  0  0  0  0  0  0  0  0
   -7.3090    6.0181   28.6301 N   0  0  0  0  0  0  0  0  0  0  0  0
   -8.5777    6.4095   28.4735 C   0  0  0  0  0  0  0  0  0  0  0  0
  -12.2197   -0.5575   26.6038 C   0  0  0  0  0  0  0  0  0  0  0  0
  -13.0684   -0.9544   27.0274 N   0  0  0  0  0  0  0  0  0  0  0  0
  -14.0535   -1.2265   27.1326 C   0  0  0  0  0  0  0  0  0  0  0  0
  -15.0343   -0.7490   26.2780 C   0  0  0  0  0  0  0  0  0  0  0  0
  -14.5428   -2.3828   27.6941 O   0  0  0  0  0  0  0  0  0  0  0  0
  -15.1936   -0.3352   25.3158 C   0  0  0  0  0  0  0  0  0  0  0  0
  -16.3232    0.3330   24.6588 C   0  0  0  0  0  0  0  0  0  0  0  0
  -16.3142    0.9571   23.3892 C   0  0  0  0  0  0  0  0  0  0  0  0
  -15.1052    0.8607   22.6749 C   0  0  0  0  0  0  0  0  0  0  0  0
  -13.9675    0.2619   23.1284 C   0  0  0  0  0  0  0  0  0  0  0  0
  -13.9415   -0.1985   24.3399 C   0  0  0  0  0  0  0  0  0  0  0  0
   -5.6063    4.5313   28.2217 O   0  0  0  0  0  0  0  0  0  0  0  0
  -11.4485   -1.0975   25.6681 O   0  0  0  0  0  0  0  0  0  0  0  0
  -16.3851   -0.5079   27.1833 C   0  0  0  0  0  0  0  0  0  0  0  0
  -16.5771   -1.0389   28.2798 C   0  0  0  0  0  0  0  0  0  0  0  0
  -17.7777   -0.8309   29.0956 C   0  0  0  0  0  0  0  0  0  0  0  0
  -18.7299   -0.0314   28.4205 C   0  0  0  0  0  0  0  0  0  0  0  0
  -18.5449    0.5322   27.2226 C   0  0  0  0  0  0  0  0  0  0  0  0
  -17.3526    0.3504   26.5573 C   0  0  0  0  0  0  0  0  0  0  0  0
  -17.2820    0.7178   25.2858 N   0  0  0  0  0  0  0  0  0  0  0  0
  2  1  1  6
  2  3  1  0
  2  4  1  0
  4  5  1  6
  1  7  1  0
  4 12  1  0
  7 18  1  0
 18 19  1  0
  8 20  1  0
 20 21  1  0
 21 22  1  0
 22 23  1  0
 22 24  2  0
  7 31  2  0
 20 32  2  0
  3 19  1  0
 12 13  2  0
 13 14  1  0
 14 15  2  0
 15 16  1  0
 16 17  2  0
 17 12  1  0
 26 27  2  0
 27 28  1  0
 28 29  2  0
 29 30  1  0
 30 25  2  0
 23 25  1  0
 25 26  1  0
 26 39  1  0
 39 38  2  0
 33 23  2  0
  5  6  2  0
  6  8  1  0
  8  9  2  0
  9 10  1  0
 10 11  2  0
 11  5  1  0
 33 34  1  0
 34 35  2  0
 35 36  1  0
 36 37  2  0
 37 38  1  0
 38 33  1  0
M  END
$$$$
