No_1754-complexes_sdf/6BKW-FPZ/2024-09-17-14-21-01/
     RDKit          3D

 12 12  0  0  0  0  0  0  0  0999 V2000
   -7.7129    4.2099   27.0854 C   0  0  0  0  0  0  0  0  0  0  0  0
   -8.9133    4.4736   27.0998 C   0  0  1  0  0  0  0  0  0  0  0  0
   -9.4643    5.5426   27.7628 C   0  0  0  0  0  0  0  0  0  0  0  0
   -9.8091    3.6358   26.2841 C   0  0  0  0  0  0  0  0  0  0  0  0
  -10.5514    4.0993   25.5100 C   0  0  0  0  0  0  0  0  0  0  0  0
   -6.9183    4.7931   28.2301 C   0  0  0  0  0  0  0  0  0  0  0  0
  -11.4829    3.3588   24.6503 C   0  0  0  0  0  0  0  0  0  0  0  0
  -12.2761    4.0043   23.7710 C   0  0  0  0  0  0  0  0  0  0  0  0
  -13.3660    3.4224   23.2863 C   0  0  0  0  0  0  0  0  0  0  0  0
  -13.5551    2.0902   23.4448 C   0  0  0  0  0  0  0  0  0  0  0  0
  -12.7064    1.3883   24.2297 C   0  0  0  0  0  0  0  0  0  0  0  0
  -11.7036    2.0453   24.9482 C   0  0  0  0  0  0  0  0  0  0  0  0
  1  2  1  0
  2  3  1  6
  2  4  1  0
  4  5  2  3
  1  6  1  0
  5  7  1  0
  7  8  2  0
  8  9  1  0
  9 10  2  0
 10 11  1  0
 11 12  2  0
 12  7  1  0
M  END
$$$$
