No_131-complexes_sdf/6BKW-FPZ/2024-09-17-14-21-01/
     RDKit          3D

 19 21  0  0  0  0  0  0  0  0999 V2000
   -7.9040    3.9820   27.1177 C   0  0  0  0  0  0  0  0  0  0  0  0
   -8.2057    2.8231   26.8733 C   0  0  0  0  0  0  0  0  0  0  0  0
   -9.3234    2.2125   27.0599 C   0  0  0  0  0  0  0  0  0  0  0  0
   -9.0146    4.9428   27.2420 C   0  0  0  0  0  0  0  0  0  0  0  0
  -10.2851    4.4096   27.2820 C   0  0  0  0  0  0  0  0  0  0  0  0
  -10.4907    3.0453   27.2378 C   0  0  0  0  0  0  0  0  0  0  0  0
   -8.7446    6.3752   27.3815 C   0  0  1  0  0  0  0  0  0  0  0  0
   -7.8709    6.9835   26.3781 C   0  0  0  0  0  0  0  0  0  0  0  0
   -9.5492    0.7285   26.9331 C   0  0  0  0  0  0  0  0  0  0  0  0
   -9.8659    0.2156   25.7939 C   0  0  0  0  0  0  0  0  0  0  0  0
   -9.9476   -1.2095   25.6498 C   0  0  0  0  0  0  0  0  0  0  0  0
   -9.6723   -1.8107   26.4319 C   0  0  0  0  0  0  0  0  0  0  0  0
   -9.2551   -1.4959   27.8083 C   0  0  0  0  0  0  0  0  0  0  0  0
   -9.1648   -0.1324   28.0797 C   0  0  0  0  0  0  0  0  0  0  0  0
   -7.9918    8.1342   26.6512 C   0  0  0  0  0  0  0  0  0  0  0  0
   -9.8719    7.4014   27.1574 C   0  0  0  0  0  0  0  0  0  0  0  0
   -9.2510    8.5198   26.8838 N   0  0  0  0  0  0  0  0  0  0  0  0
  -10.1027    1.0185   24.7370 F   0  0  0  0  0  0  0  0  0  0  0  0
   -9.0267   -2.3421   28.8204 F   0  0  0  0  0  0  0  0  0  0  0  0
  7  4  1  6
  7  8  1  0
  3  9  1  0
  8 15  2  0
  7 16  1  0
 15 17  1  0
 16 17  2  0
 10 18  1  0
 13 19  1  0
  1  2  2  0
  2  3  1  0
  3  6  2  0
  6  5  1  0
  5  4  2  0
  4  1  1  0
  9 10  2  0
 10 11  1  0
 11 12  2  0
 12 13  1  0
 13 14  2  0
 14  9  1  0
M  END
$$$$
