No_1861-complexes_sdf/6BKW-FPZ/2024-09-17-14-21-01/
     RDKit          3D

 13 13  0  0  0  0  0  0  0  0999 V2000
   -7.7129    4.2099   27.0854 C   0  0  0  0  0  0  0  0  0  0  0  0
   -7.7814    5.1722   27.8972 C   0  0  0  0  0  0  0  0  0  0  0  0
   -8.7889    3.2468   27.2220 C   0  0  0  0  0  0  0  0  0  0  0  0
   -8.5940    1.9755   26.6525 C   0  0  0  0  0  0  0  0  0  0  0  0
   -7.5537    1.2112   27.0910 C   0  0  0  0  0  0  0  0  0  0  0  0
   -8.9922    5.8883   28.1677 C   0  0  0  0  0  0  0  0  0  0  0  0
   -9.9971    3.5833   27.8368 C   0  0  0  0  0  0  0  0  0  0  0  0
  -10.1394    4.9623   28.3079 C   0  0  0  0  0  0  0  0  0  0  0  0
   -7.3888   -0.1062   26.7549 C   0  0  0  0  0  0  0  0  0  0  0  0
   -8.8888    1.5494   25.3328 C   0  0  0  0  0  0  0  0  0  0  0  0
   -9.9489    2.3898   24.7159 C   0  0  0  0  0  0  0  0  0  0  0  0
   -6.4321   -0.9197   27.4486 C   0  0  0  0  0  0  0  0  0  0  0  0
  -10.5331    3.3701   25.3104 C   0  0  0  0  0  0  0  0  0  0  0  0
  3  4  1  0
  4  5  2  3
  5  9  1  0
  4 10  1  0
 10 11  1  0
  9 12  2  0
 11 13  1  0
  1  2  2  0
  2  6  1  0
  6  8  2  0
  8  7  1  0
  7  3  2  0
  3  1  1  0
M  END
$$$$
