No_1621-complexes_sdf/6BKW-FPZ/2024-09-17-14-21-01/
     RDKit          3D

 15 16  0  0  0  0  0  0  0  0999 V2000
   -7.2496    3.8871   27.4508 C   0  0  0  0  0  0  0  0  0  0  0  0
   -7.6161    2.7143   27.1523 C   0  0  0  0  0  0  0  0  0  0  0  0
   -8.6212    2.2239   26.4074 C   0  0  0  0  0  0  0  0  0  0  0  0
   -8.2540    4.9237   27.1711 C   0  0  0  0  0  0  0  0  0  0  0  0
   -8.0481    6.2918   27.4896 C   0  0  0  0  0  0  0  0  0  0  0  0
   -9.5812    3.2432   26.0960 C   0  0  0  0  0  0  0  0  0  0  0  0
   -9.3651    4.5697   26.4537 C   0  0  0  0  0  0  0  0  0  0  0  0
   -8.9200    7.3345   27.0001 C   0  0  0  0  0  0  0  0  0  0  0  0
   -9.0428    0.9020   26.0645 C   0  0  0  0  0  0  0  0  0  0  0  0
   -9.0999   -0.0448   26.9315 C   0  0  0  0  0  0  0  0  0  0  0  0
   -9.4012   -1.1080   27.0851 C   0  0  0  0  0  0  0  0  0  0  0  0
  -10.0113   -1.7238   25.9620 C   0  0  0  0  0  0  0  0  0  0  0  0
   -9.3330    0.5572   24.7606 C   0  0  0  0  0  0  0  0  0  0  0  0
   -9.8613   -0.8354   24.6678 C   0  0  0  0  0  0  0  0  0  0  0  0
   -6.4129    1.1997   27.6534 Br  0  0  0  0  0  0  0  0  0  0  0  0
  4  5  1  0
  5  8  2  0
  3  9  1  0
  2 15  1  0
  1  2  2  0
  2  3  1  0
  3  6  2  0
  6  7  1  0
  7  4  2  0
  4  1  1  0
  9 10  2  0
 10 11  1  0
 11 12  2  0
 12 14  1  0
 14 13  2  0
 13  9  1  0
M  END
$$$$
