No_1070-complexes_sdf/6BKW-FPZ/2024-09-17-14-21-01/
     RDKit          3D

 14 14  0  0  0  0  0  0  0  0999 V2000
   -7.9040    3.9820   27.1177 C   0  0  0  0  0  0  0  0  0  0  0  0
   -7.8663    4.8694   27.9238 C   0  0  0  0  0  0  0  0  0  0  0  0
   -9.0501    3.8017   26.2617 C   0  0  0  0  0  0  0  0  0  0  0  0
   -9.1826    2.7026   25.3575 C   0  0  0  0  0  0  0  0  0  0  0  0
   -8.6940    6.0131   27.8614 C   0  0  0  0  0  0  0  0  0  0  0  0
   -9.9755    4.8547   26.2361 C   0  0  0  0  0  0  0  0  0  0  0  0
   -9.7463    5.9398   27.0364 C   0  0  0  0  0  0  0  0  0  0  0  0
  -10.1421    1.8836   25.6653 C   0  0  0  0  0  0  0  0  0  0  0  0
  -10.9459    1.7626   26.4373 C   0  0  0  0  0  0  0  0  0  0  0  0
  -11.5165    1.1233   27.1054 C   0  0  0  0  0  0  0  0  0  0  0  0
  -11.2620   -0.2165   27.5559 C   0  0  0  0  0  0  0  0  0  0  0  0
  -12.0416   -0.9812   28.4802 C   0  0  0  0  0  0  0  0  0  0  0  0
  -13.1148   -0.3302   29.0670 C   0  0  0  0  0  0  0  0  0  0  0  0
  -13.4534    0.9236   28.8621 C   0  0  0  0  0  0  0  0  0  0  0  0
  3  4  1  0
  4  8  1  0
  8  9  2  3
  9 10  1  0
 10 11  2  3
 11 12  1  0
 12 13  2  3
 13 14  1  0
  1  2  2  0
  2  5  1  0
  5  7  2  0
  7  6  1  0
  6  3  2  0
  3  1  1  0
M  END
$$$$
