No_1962-complexes_sdf/6BKW-FPZ/2024-09-17-14-21-01/
     RDKit          3D

  7  7  0  0  0  0  0  0  0  0999 V2000
   -7.2496    3.8871   27.4508 C   0  0  0  0  0  0  0  0  0  0  0  0
   -7.9379    4.9063   27.8518 C   0  0  0  0  0  0  0  0  0  0  0  0
   -8.9501    5.3664   27.1340 C   0  0  0  0  0  0  0  0  0  0  0  0
   -7.8820    2.8617   26.9644 C   0  0  0  0  0  0  0  0  0  0  0  0
   -9.1643    3.0889   26.3622 C   0  0  0  0  0  0  0  0  0  0  0  0
   -9.6133    6.6611   27.3047 C   0  0  0  0  0  0  0  0  0  0  0  0
   -9.7804    4.4169   26.4735 C   0  0  0  0  0  0  0  0  0  0  0  0
  3  6  1  0
  1  2  2  0
  2  3  1  0
  3  7  2  0
  7  5  1  0
  5  4  2  0
  4  1  1  0
M  END
$$$$
