No_1252-complexes_sdf/6BKW-FPZ/2024-09-17-14-21-01/
     RDKit          3D

 18 19  0  0  0  0  0  0  0  0999 V2000
   -7.9040    3.9820   27.1177 C   0  0  0  0  0  0  0  0  0  0  0  0
   -9.0711    4.3164   27.0630 C   0  0  0  0  0  0  0  0  0  0  0  0
  -10.0395    3.8218   27.1938 C   0  0  0  0  0  0  0  0  0  0  0  0
   -7.6424    2.5858   27.3610 C   0  0  0  0  0  0  0  0  0  0  0  0
   -8.7741    1.7889   27.4566 C   0  0  0  0  0  0  0  0  0  0  0  0
  -10.0155    2.3581   27.4300 C   0  0  0  0  0  0  0  0  0  0  0  0
  -11.2141    1.4842   27.6314 C   0  0  0  0  0  0  0  0  0  0  0  0
  -12.1302    1.9568   28.4998 C   0  0  0  0  0  0  0  0  0  0  0  0
  -13.1599    1.1005   28.9731 C   0  0  0  0  0  0  0  0  0  0  0  0
  -13.2094   -0.1687   28.4267 C   0  0  0  0  0  0  0  0  0  0  0  0
  -11.2190    0.1586   27.3603 C   0  0  0  0  0  0  0  0  0  0  0  0
  -12.2175   -0.6566   27.6935 C   0  0  0  0  0  0  0  0  0  0  0  0
   -9.3559    5.9252   26.9314 C   0  0  0  0  0  0  0  0  0  0  0  0
   -8.1511    6.8087   27.0983 C   0  0  0  0  0  0  0  0  0  0  0  0
   -8.2489    8.1444   26.6512 C   0  0  0  0  0  0  0  0  0  0  0  0
   -6.0626    1.9185   27.4060 Cl  0  0  0  0  0  0  0  0  0  0  0  0
  -14.5325   -1.2059   28.9147 Cl  0  0  0  0  0  0  0  0  0  0  0  0
   -7.1276    6.3684   27.7282 O   0  0  0  0  0  0  0  0  0  0  0  0
  6  7  1  0
  2 13  1  0
 13 14  1  0
 14 15  1  0
  4 16  1  0
 10 17  1  0
 14 18  2  0
  7  8  2  0
  8  9  1  0
  9 10  2  0
 10 12  1  0
 12 11  2  0
 11  7  1  0
  1  2  2  0
  2  3  1  0
  3  6  2  0
  6  5  1  0
  5  4  2  0
  4  1  1  0
M  END
$$$$
