No_2170-complexes_sdf/6BKW-FPZ/2024-09-17-14-21-01/
     RDKit          3D

 30 33  0  0  0  0  0  0  0  0999 V2000
   -7.2496    3.8871   27.4508 C   0  0  0  0  0  0  0  0  0  0  0  0
   -8.5096    4.0291   27.2770 C   0  0  0  0  0  0  0  0  0  0  0  0
   -9.2669    5.1645   27.5845 C   0  0  2  0  0  0  0  0  0  0  0  0
  -10.6621    5.2321   27.4284 C   0  0  0  0  0  0  0  0  0  0  0  0
   -9.2831    2.8719   26.7564 C   0  0  0  0  0  0  0  0  0  0  0  0
   -8.5831    1.7059   26.4529 C   0  0  0  0  0  0  0  0  0  0  0  0
   -6.5244    2.6560   27.3972 C   0  0  0  0  0  0  0  0  0  0  0  0
   -7.2358    1.5939   26.8620 C   0  0  0  0  0  0  0  0  0  0  0  0
   -8.5380    6.4171   27.8328 C   0  0  0  0  0  0  0  0  0  0  0  0
   -4.9163    2.5235   27.8324 Cl  0  0  0  0  0  0  0  0  0  0  0  0
   -9.2121    0.5106   26.0167 C   0  0  0  0  0  0  0  0  0  0  0  0
   -8.6802   -0.2998   25.3810 C   0  0  0  0  0  0  0  0  0  0  0  0
   -9.3241   -1.5125   24.8411 C   0  0  0  0  0  0  0  0  0  0  0  0
  -10.6598   -1.6209   25.0694 C   0  0  0  0  0  0  0  0  0  0  0  0
  -11.3209   -0.6421   25.7863 C   0  0  0  0  0  0  0  0  0  0  0  0
  -10.6517    0.4439   26.3018 C   0  0  0  0  0  0  0  0  0  0  0  0
  -11.3706   -2.6841   24.6462 O   0  0  0  0  0  0  0  0  0  0  0  0
  -11.1403   -3.8799   25.0061 C   0  0  0  0  0  0  0  0  0  0  0  0
  -11.8637   -4.7918   24.7648 C   0  0  0  0  0  0  0  0  0  0  0  0
  -11.5870   -6.1879   25.1620 C   0  0  0  0  0  0  0  0  0  0  0  0
  -10.3693   -6.4325   25.8283 C   0  0  0  0  0  0  0  0  0  0  0  0
   -9.5295   -5.3888   26.0747 C   0  0  0  0  0  0  0  0  0  0  0  0
   -9.8193   -4.1036   25.7342 C   0  0  0  0  0  0  0  0  0  0  0  0
   -8.2528   -5.6664   26.8219 C   0  0  0  0  0  0  0  0  0  0  0  0
   -7.3587   -4.6933   26.9278 C   0  0  0  0  0  0  0  0  0  0  0  0
   -6.1270   -4.8404   27.6261 C   0  0  0  0  0  0  0  0  0  0  0  0
   -5.8722   -6.1056   28.0845 C   0  0  0  0  0  0  0  0  0  0  0  0
   -6.7476   -7.0977   27.9548 C   0  0  0  0  0  0  0  0  0  0  0  0
   -7.9652   -6.8844   27.3160 C   0  0  0  0  0  0  0  0  0  0  0  0
   -7.1938    6.4040   27.3807 C   0  0  0  0  0  0  0  0  0  0  0  0
  2  3  1  0
  3  4  1  6
  3  9  1  0
  7 10  1  0
  6 11  1  0
 14 17  1  0
 17 18  1  0
 22 24  1  0
  9 30  2  0
 18 19  2  0
 19 20  1  0
 20 21  2  0
 21 22  1  0
 22 23  2  0
 23 18  1  0
 11 12  2  0
 12 13  1  0
 13 14  2  0
 14 15  1  0
 15 16  2  0
 16 11  1  0
 24 25  2  0
 25 26  1  0
 26 27  2  0
 27 28  1  0
 28 29  2  0
 29 24  1  0
  1  2  2  0
  2  5  1  0
  5  6  2  0
  6  8  1  0
  8  7  2  0
  7  1  1  0
M  END
$$$$
