No_2984-complexes_sdf/6BKW-FPZ/2024-09-17-14-21-01/
     RDKit          3D

 32 36  0  0  0  0  0  0  0  0999 V2000
   -7.9040    3.9820   27.1177 C   0  0  0  0  0  0  0  0  0  0  0  0
   -7.8663    4.8694   27.9238 C   0  0  0  0  0  0  0  0  0  0  0  0
   -7.4547    2.7080   27.4594 C   0  0  0  0  0  0  0  0  0  0  0  0
   -8.7044    6.0412   27.8492 C   0  0  0  0  0  0  0  0  0  0  0  0
   -7.9501    1.5743   26.8848 C   0  0  0  0  0  0  0  0  0  0  0  0
   -8.8773    1.7289   25.8707 C   0  0  0  0  0  0  0  0  0  0  0  0
   -9.3595    2.9624   25.5238 C   0  0  0  0  0  0  0  0  0  0  0  0
   -9.0069    4.0555   26.2453 C   0  0  0  0  0  0  0  0  0  0  0  0
   -9.5875    5.3048   26.1708 C   0  0  0  0  0  0  0  0  0  0  0  0
   -9.4128    6.3702   26.8948 C   0  0  0  0  0  0  0  0  0  0  0  0
   -7.3270    0.2534   27.1386 C   0  0  0  0  0  0  0  0  0  0  0  0
   -6.0301    0.1721   27.6623 C   0  0  0  0  0  0  0  0  0  0  0  0
   -5.4729   -1.0529   28.0165 C   0  0  0  0  0  0  0  0  0  0  0  0
   -6.2599   -2.1678   27.8814 C   0  0  0  0  0  0  0  0  0  0  0  0
   -7.8896   -1.0128   27.1753 C   0  0  0  0  0  0  0  0  0  0  0  0
   -7.4699   -2.1387   27.5035 C   0  0  0  0  0  0  0  0  0  0  0  0
  -10.3159    3.0460   24.4037 C   0  0  0  0  0  0  0  0  0  0  0  0
  -10.2293    2.3393   23.3276 C   0  0  0  0  0  0  0  0  0  0  0  0
  -11.0683    2.4875   22.2055 C   0  0  0  0  0  0  0  0  0  0  0  0
  -11.8960    3.5929   22.1420 C   0  0  0  0  0  0  0  0  0  0  0  0
  -11.9350    4.4518   23.2289 C   0  0  0  0  0  0  0  0  0  0  0  0
  -11.1509    4.2846   24.3151 C   0  0  0  0  0  0  0  0  0  0  0  0
   -4.0498   -1.0266   28.5522 C   0  0  2  0  0  0  0  0  0  0  0  0
   -3.9130   -0.5469   29.8970 C   0  0  0  0  0  0  0  0  0  0  0  0
   -2.9532   -1.1684   30.7383 C   0  0  0  0  0  0  0  0  0  0  0  0
   -2.8785   -0.6688   32.0878 C   0  0  0  0  0  0  0  0  0  0  0  0
   -1.9763   -1.2297   33.0118 C   0  0  0  0  0  0  0  0  0  0  0  0
   -1.1262   -2.2223   32.5819 C   0  0  0  0  0  0  0  0  0  0  0  0
   -1.1767   -2.6466   31.2991 C   0  0  0  0  0  0  0  0  0  0  0  0
   -2.0324   -2.1125   30.3908 C   0  0  0  0  0  0  0  0  0  0  0  0
   -3.0267   -1.1912   27.6963 C   0  0  0  0  0  0  0  0  0  0  0  0
   -2.2292   -0.0902   27.4511 C   0  0  0  0  0  0  0  0  0  0  0  0
  5 11  1  0
  7 17  1  0
 13 23  1  0
 23 24  1  6
 23 31  1  0
 31 32  1  0
 24 25  1  0
  1  3  1  0
  3  5  2  0
  5  6  1  0
  6  7  2  0
  7  8  1  0
 25 26  2  0
 26 27  1  0
 27 28  2  0
 28 29  1  0
 29 30  2  0
 30 25  1  0
  1  2  2  0
  2  4  1  0
  4 10  2  0
 10  9  1  0
  9  8  2  0
  8  1  1  0
 11 12  2  0
 12 13  1  0
 13 14  2  0
 14 16  1  0
 16 15  2  0
 15 11  1  0
 17 18  2  0
 18 19  1  0
 19 20  2  0
 20 21  1  0
 21 22  2  0
 22 17  1  0
M  END
$$$$
