No_2600-complexes_sdf/6BKW-FPZ/2024-09-17-14-21-01/
     RDKit          3D

 27 29  0  0  0  0  0  0  0  0999 V2000
   -7.7129    4.2099   27.0854 C   0  0  0  0  0  0  0  0  0  0  0  0
   -8.9134    4.4736   27.0998 C   0  0  0  0  0  0  0  0  0  0  0  0
   -9.4643    5.5426   27.7628 C   0  0  0  0  0  0  0  0  0  0  0  0
   -7.2009    2.9448   26.6134 C   0  0  0  0  0  0  0  0  0  0  0  0
   -8.1365    1.9533   26.2981 C   0  0  1  0  0  0  0  0  0  0  0  0
   -9.4501    2.2651   26.2497 C   0  0  1  0  0  0  0  0  0  0  0  0
   -9.8615    3.4703   26.6763 C   0  0  0  0  0  0  0  0  0  0  0  0
   -7.5839    0.6450   25.9087 C   0  0  0  0  0  0  0  0  0  0  0  0
   -7.7259    0.2664   24.7999 O   0  0  0  0  0  0  0  0  0  0  0  0
   -6.9902   -0.0633   26.8497 O   0  0  0  0  0  0  0  0  0  0  0  0
   -6.7423    0.1035   27.9165 C   0  0  0  0  0  0  0  0  0  0  0  0
   -6.2770   -1.0556   28.7437 C   0  0  0  0  0  0  0  0  0  0  0  0
   -5.1765   -0.8382   29.5737 C   0  0  0  0  0  0  0  0  0  0  0  0
   -4.5690    0.4608   29.7008 C   0  0  0  0  0  0  0  0  0  0  0  0
   -4.8902    1.4496   28.7192 C   0  0  0  0  0  0  0  0  0  0  0  0
   -5.5275    1.2011   27.8972 C   0  0  0  0  0  0  0  0  0  0  0  0
   -4.9128   -1.8575   30.6412 C   0  0  0  0  0  0  0  0  0  0  0  0
   -5.5430   -2.8020   30.6386 F   0  0  0  0  0  0  0  0  0  0  0  0
   -3.5748   -2.2642   30.4889 F   0  0  0  0  0  0  0  0  0  0  0  0
   -4.8636   -1.2371   31.9051 F   0  0  0  0  0  0  0  0  0  0  0  0
  -10.3906    1.3236   25.6796 C   0  0  0  0  0  0  0  0  0  0  0  0
  -11.2179    0.7576   26.6398 C   0  0  0  0  0  0  0  0  0  0  0  0
  -12.0136    0.1249   26.5856 C   0  0  0  0  0  0  0  0  0  0  0  0
  -12.9045   -0.4572   27.7023 C   0  0  0  0  0  0  0  0  0  0  0  0
  -12.6164   -0.1095   28.7163 C   0  0  0  0  0  0  0  0  0  0  0  0
  -11.5985    0.8146   29.1144 C   0  0  0  0  0  0  0  0  0  0  0  0
  -10.8782    1.2856   28.1334 C   0  0  0  0  0  0  0  0  0  0  0  0
  1  2  1  0
  2  3  2  0
  1  4  1  0
  4  5  1  0
  5  6  1  0
  2  7  1  0
  6  7  1  0
  5  8  1  6
  8  9  2  0
  8 10  1  0
 10 11  1  0
 13 17  1  0
 17 18  1  0
 17 19  1  0
 17 20  1  0
  6 21  1  6
 21 22  1  0
 11 12  2  0
 12 13  1  0
 13 14  2  0
 14 15  1  0
 15 16  2  0
 16 11  1  0
 22 23  2  0
 23 24  1  0
 24 25  2  0
 25 26  1  0
 26 27  2  0
 27 22  1  0
M  END
$$$$
