No_2986-complexes_sdf/6BKW-FPZ/2024-09-17-14-21-01/
     RDKit          3D

 21 23  0  0  0  0  0  0  0  0999 V2000
   -7.2496    3.8871   27.4508 C   0  0  0  0  0  0  0  0  0  0  0  0
   -7.9379    4.9063   27.8518 C   0  0  0  0  0  0  0  0  0  0  0  0
   -7.4895    6.2027   27.7481 C   0  0  0  0  0  0  0  0  0  0  0  0
   -7.8057    2.6324   27.3137 C   0  0  0  0  0  0  0  0  0  0  0  0
   -9.1872    2.4678   27.5434 C   0  0  0  0  0  0  0  0  0  0  0  0
   -9.9237    3.5448   27.9999 C   0  0  0  0  0  0  0  0  0  0  0  0
   -9.3832    4.8080   28.1012 C   0  0  0  0  0  0  0  0  0  0  0  0
  -11.4121    3.4754   28.3220 C   0  0  0  0  0  0  0  0  0  0  0  0
  -12.3251    4.2935   27.6938 C   0  0  0  0  0  0  0  0  0  0  0  0
  -13.6697    4.2919   28.0159 C   0  0  0  0  0  0  0  0  0  0  0  0
  -14.1246    3.4919   29.0338 C   0  0  0  0  0  0  0  0  0  0  0  0
  -13.2390    2.6175   29.6763 C   0  0  0  0  0  0  0  0  0  0  0  0
  -11.8983    2.6116   29.3767 C   0  0  0  0  0  0  0  0  0  0  0  0
   -7.0171    1.4458   26.9223 C   0  0  0  0  0  0  0  0  0  0  0  0
   -7.0124    0.3064   27.7071 C   0  0  0  0  0  0  0  0  0  0  0  0
   -7.9033   -0.5560   27.6966 C   0  0  0  0  0  0  0  0  0  0  0  0
   -7.8595   -1.7876   28.5033 C   0  0  0  0  0  0  0  0  0  0  0  0
   -8.9516   -2.6304   28.7028 C   0  0  0  0  0  0  0  0  0  0  0  0
  -10.1452   -2.2818   27.9959 C   0  0  0  0  0  0  0  0  0  0  0  0
  -10.2534   -1.1679   27.2170 C   0  0  0  0  0  0  0  0  0  0  0  0
   -9.1629   -0.3145   27.1450 C   0  0  0  0  0  0  0  0  0  0  0  0
  2  3  1  0
  6  8  1  0
  4 14  1  0
 14 15  1  0
 15 16  1  0
  1  2  2  0
  2  7  1  0
  7  6  2  0
  6  5  1  0
  5  4  2  0
  4  1  1  0
  8  9  2  0
  9 10  1  0
 10 11  2  0
 11 12  1  0
 12 13  2  0
 13  8  1  0
 16 17  2  0
 17 18  1  0
 18 19  2  0
 19 20  1  0
 20 21  2  0
 21 16  1  0
M  END
$$$$
