No_2911-complexes_sdf/6BKW-FPZ/2024-09-17-14-21-01/
     RDKit          3D

 21 23  0  0  0  0  0  0  0  0999 V2000
   -7.9040    3.9820   27.1177 C   0  0  0  0  0  0  0  0  0  0  0  0
   -7.8663    4.8694   27.9238 C   0  0  0  0  0  0  0  0  0  0  0  0
   -7.4547    2.7080   27.4594 C   0  0  0  0  0  0  0  0  0  0  0  0
   -8.7044    6.0412   27.8492 C   0  0  0  0  0  0  0  0  0  0  0  0
   -6.9701    1.8932   27.0570 C   0  0  0  0  0  0  0  0  0  0  0  0
   -6.8968    0.5320   27.7576 C   0  0  0  0  0  0  0  0  0  0  0  0
   -8.6483    4.2137   25.9424 C   0  0  0  0  0  0  0  0  0  0  0  0
   -9.3761    5.3762   25.6610 C   0  0  0  0  0  0  0  0  0  0  0  0
   -9.2322    6.4207   26.6203 C   0  0  0  0  0  0  0  0  0  0  0  0
   -5.6118    0.1040   28.0912 C   0  0  0  0  0  0  0  0  0  0  0  0
   -4.5370    0.7625   27.4975 C   0  0  0  0  0  0  0  0  0  0  0  0
   -3.3877   -0.0315   27.3512 C   0  0  0  0  0  0  0  0  0  0  0  0
   -2.2775    0.5663   26.6855 C   0  0  0  0  0  0  0  0  0  0  0  0
   -3.3208   -1.3328   27.8149 C   0  0  0  0  0  0  0  0  0  0  0  0
   -4.3735   -1.8984   28.4673 C   0  0  0  0  0  0  0  0  0  0  0  0
   -5.5762   -1.2201   28.6153 C   0  0  0  0  0  0  0  0  0  0  0  0
   -2.3051    1.8960   26.5425 N   0  0  0  0  0  0  0  0  0  0  0  0
   -1.2862   -0.1003   26.3776 O   0  0  0  0  0  0  0  0  0  0  0  0
   -8.0954   -0.1407   28.0023 C   0  0  0  0  0  0  0  0  0  0  0  0
   -8.0750   -1.4894   28.2694 C   0  0  0  0  0  0  0  0  0  0  0  0
   -6.8101   -1.9498   28.7937 C   0  0  0  0  0  0  0  0  0  0  0  0
  1  3  1  0
  3  5  3  0
  5  6  1  0
 12 13  1  0
 13 17  1  0
 13 18  2  0
  1  2  2  0
  2  4  1  0
  4  9  2  0
  9  8  1  0
  8  7  2  0
  7  1  1  0
 10 11  2  0
 11 12  1  0
 12 14  2  0
 14 15  1  0
 15 16  2  0
  6 10  1  0
 10 16  1  0
 16 21  1  0
 21 20  2  0
 20 19  1  0
 19  6  2  0
M  END
$$$$
