No_2511-complexes_sdf/6BKW-FPZ/2024-09-17-14-21-01/
     RDKit          3D

 25 28  0  0  0  0  0  0  0  0999 V2000
   -7.9040    3.9820   27.1177 C   0  0  0  0  0  0  0  0  0  0  0  0
   -9.0711    4.3164   27.0630 C   0  0  0  0  0  0  0  0  0  0  0  0
   -9.5182    5.5541   27.5777 C   0  0  0  0  0  0  0  0  0  0  0  0
   -7.4468    2.6843   26.6499 C   0  0  0  0  0  0  0  0  0  0  0  0
   -8.3856    1.7878   26.2216 C   0  0  0  0  0  0  0  0  0  0  0  0
   -7.9963    0.4896   25.8743 C   0  0  0  0  0  0  0  0  0  0  0  0
  -10.0508    3.4271   26.5305 C   0  0  0  0  0  0  0  0  0  0  0  0
   -9.6621    2.2116   26.1270 C   0  0  0  0  0  0  0  0  0  0  0  0
   -7.5646   -0.3293   26.6716 O   0  0  0  0  0  0  0  0  0  0  0  0
   -8.4991   -0.0099   24.6849 O   0  0  0  0  0  0  0  0  0  0  0  0
   -8.5712    6.6626   27.4759 C   0  0  0  0  0  0  0  0  0  0  0  0
   -7.9266    6.9210   26.3466 C   0  0  0  0  0  0  0  0  0  0  0  0
   -8.6140    6.6782   25.4279 C   0  0  0  0  0  0  0  0  0  0  0  0
   -9.9051    6.2475   25.3362 C   0  0  0  0  0  0  0  0  0  0  0  0
  -10.5407    5.6090   26.3388 C   0  0  0  0  0  0  0  0  0  0  0  0
   -8.6382   -1.1894   24.4867 C   0  0  0  0  0  0  0  0  0  0  0  0
   -7.6370   -1.8058   23.6009 C   0  0  0  0  0  0  0  0  0  0  0  0
   -7.6584   -2.9040   23.3055 C   0  0  0  0  0  0  0  0  0  0  0  0
   -8.7388   -3.7962   23.6590 C   0  0  0  0  0  0  0  0  0  0  0  0
   -9.7406   -1.8880   24.0809 C   0  0  0  0  0  0  0  0  0  0  0  0
   -9.8587   -3.2142   24.0904 C   0  0  0  0  0  0  0  0  0  0  0  0
  -10.9663    4.2465   26.2928 C   0  0  1  0  0  0  0  0  0  0  0  0
  -12.3544    3.8690   25.8061 C   0  0  0  0  0  0  0  0  0  0  0  0
  -12.6524    4.0189   24.5812 C   0  0  0  0  0  0  0  0  0  0  0  0
  -13.9605    3.6621   24.1083 C   0  0  0  0  0  0  0  0  0  0  0  0
  2  3  1  0
  5  6  1  0
  6  9  2  0
  6 10  1  0
 10 16  1  0
  7 22  1  0
 15 22  1  0
 22 23  1  6
 23 24  2  3
 24 25  1  0
 16 17  2  0
 17 18  1  0
 18 19  2  0
 19 21  1  0
 21 20  2  0
 20 16  1  0
  1  2  2  0
  2  7  1  0
  7  8  2  0
  8  5  1  0
  5  4  2  0
  4  1  1  0
  3 11  2  0
 11 12  1  0
 12 13  2  0
 13 14  1  0
 14 15  2  0
 15  3  1  0
M  END
$$$$
