No_2886-complexes_sdf/6BKW-FPZ/2024-09-17-14-21-01/
     RDKit          3D

 18 19  0  0  0  0  0  0  0  0999 V2000
   -7.9040    3.9820   27.1177 C   0  0  0  0  0  0  0  0  0  0  0  0
   -8.2057    2.8231   26.8733 C   0  0  0  0  0  0  0  0  0  0  0  0
   -8.7695    5.0740   26.7916 C   0  0  0  0  0  0  0  0  0  0  0  0
   -8.4337    6.4678   27.0913 C   0  0  0  0  0  0  0  0  0  0  0  0
   -9.3742    2.4311   26.2346 C   0  0  0  0  0  0  0  0  0  0  0  0
  -10.2395    3.4267   25.8887 C   0  0  0  0  0  0  0  0  0  0  0  0
   -9.9567    4.7548   26.1374 C   0  0  0  0  0  0  0  0  0  0  0  0
   -8.8110    7.3245   26.4321 F   0  0  0  0  0  0  0  0  0  0  0  0
   -7.0019    6.5539   27.1777 F   0  0  0  0  0  0  0  0  0  0  0  0
   -7.2431    1.6786   27.2892 C   0  0  0  0  0  0  0  0  0  0  0  0
   -7.5511    0.3914   27.1905 N   0  0  0  0  0  0  0  0  0  0  0  0
   -6.0053    1.9587   27.6176 O   0  0  0  0  0  0  0  0  0  0  0  0
   -8.7151   -0.1218   26.6878 C   0  0  0  0  0  0  0  0  0  0  0  0
   -9.6665    0.9473   26.1793 C   0  0  0  0  0  0  0  0  0  0  0  0
   -8.7736    6.6407   28.4228 F   0  0  0  0  0  0  0  0  0  0  0  0
  -11.4870    3.1496   25.1507 C   0  0  0  0  0  0  0  0  0  0  0  0
  -12.6542    3.3053   25.8917 C   0  0  0  0  0  0  0  0  0  0  0  0
  -13.8836    3.0881   25.2313 C   0  0  0  0  0  0  0  0  0  0  0  0
  3  4  1  0
  4  8  1  0
  4  9  1  0
  2 10  1  0
 10 11  1  0
 10 12  2  0
 11 13  1  0
  5 14  1  0
  4 15  1  0
  6 16  1  0
 16 17  2  3
 17 18  1  0
 14 13  1  0
  1  2  2  0
  2  5  1  0
  5  6  2  0
  6  7  1  0
  7  3  2  0
  3  1  1  0
M  END
$$$$
