No_2876-complexes_sdf/6BKW-FPZ/2024-09-17-14-21-01/
     RDKit          3D

 20 22  0  0  0  0  0  0  0  0999 V2000
   -7.2496    3.8871   27.4508 C   0  0  0  0  0  0  0  0  0  0  0  0
   -7.9379    4.9063   27.8518 C   0  0  0  0  0  0  0  0  0  0  0  0
   -7.5112    6.1898   27.6280 C   0  0  0  0  0  0  0  0  0  0  0  0
   -7.8078    2.6331   27.2522 C   0  0  0  0  0  0  0  0  0  0  0  0
   -7.1538    1.5087   26.7509 C   0  0  0  0  0  0  0  0  0  0  0  0
   -9.2627    2.5305   27.2363 C   0  0  0  0  0  0  0  0  0  0  0  0
  -10.0152    3.3691   27.9604 C   0  0  1  0  0  0  0  0  0  0  0  0
   -9.4363    4.7531   28.0605 C   0  0  0  0  0  0  0  0  0  0  0  0
   -7.6600    0.4795   26.0661 C   0  0  0  0  0  0  0  0  0  0  0  0
   -9.7147    1.1723   27.0871 C   0  0  0  0  0  0  0  0  0  0  0  0
   -9.0642    0.1955   26.4033 C   0  0  0  0  0  0  0  0  0  0  0  0
  -11.4520    3.4452   27.5426 C   0  0  0  0  0  0  0  0  0  0  0  0
  -12.3797    3.5084   28.6101 C   0  0  0  0  0  0  0  0  0  0  0  0
  -13.7256    3.7668   28.4811 C   0  0  0  0  0  0  0  0  0  0  0  0
  -14.1575    3.9238   27.1394 C   0  0  0  0  0  0  0  0  0  0  0  0
  -13.2315    3.9520   26.0751 C   0  0  0  0  0  0  0  0  0  0  0  0
  -11.8674    3.8071   26.2971 C   0  0  0  0  0  0  0  0  0  0  0  0
   -9.6776   -1.0011   25.9545 C   0  0  0  0  0  0  0  0  0  0  0  0
  -10.6677   -1.3637   26.3024 N   0  0  0  0  0  0  0  0  0  0  0  0
  -11.4026   -2.4331   25.9975 C   0  0  0  0  0  0  0  0  0  0  0  0
  1  2  1  0
  2  3  2  0
  1  4  1  0
  6  7  1  0
  2  8  1  0
  7  8  1  0
  7 12  1  6
 11 18  1  0
 18 19  2  3
 19 20  1  0
 12 13  2  0
 13 14  1  0
 14 15  2  0
 15 16  1  0
 16 17  2  0
 17 12  1  0
  4  5  2  0
  5  9  1  0
  9 11  2  0
 11 10  1  0
 10  6  2  0
  6  4  1  0
M  END
$$$$
