No_2926-complexes_sdf/6BKW-FPZ/2024-09-17-14-21-01/
     RDKit          3D

 18 20  0  0  0  0  0  0  0  0999 V2000
   -7.9040    3.9820   27.1177 C   0  0  0  0  0  0  0  0  0  0  0  0
   -7.8663    4.8694   27.9238 C   0  0  0  0  0  0  0  0  0  0  0  0
   -9.0501    3.8017   26.2617 C   0  0  0  0  0  0  0  0  0  0  0  0
  -10.0189    4.7608   26.3707 C   0  0  0  0  0  0  0  0  0  0  0  0
   -8.6770    5.9780   27.9222 C   0  0  0  0  0  0  0  0  0  0  0  0
   -9.8040    5.8752   27.0958 C   0  0  0  0  0  0  0  0  0  0  0  0
   -9.1317    2.6414   25.4147 C   0  0  0  0  0  0  0  0  0  0  0  0
   -8.6458    1.4431   25.8429 C   0  0  0  0  0  0  0  0  0  0  0  0
   -9.8152    2.7444   24.1900 C   0  0  0  0  0  0  0  0  0  0  0  0
   -8.7189    0.3583   25.0028 C   0  0  0  0  0  0  0  0  0  0  0  0
   -9.8603    1.6493   23.3627 C   0  0  0  0  0  0  0  0  0  0  0  0
  -10.4496    1.7185   22.0423 C   0  0  0  0  0  0  0  0  0  0  0  0
   -9.2565    0.4404   23.7265 C   0  0  0  0  0  0  0  0  0  0  0  0
  -10.5122    2.9596   21.4795 C   0  0  0  0  0  0  0  0  0  0  0  0
  -10.3105    4.0848   22.2855 C   0  0  0  0  0  0  0  0  0  0  0  0
  -10.0400    4.0517   23.5952 C   0  0  0  0  0  0  0  0  0  0  0  0
   -8.2449   -0.8504   25.4258 O   0  0  0  0  0  0  0  0  0  0  0  0
   -7.8462   -1.7493   24.8335 C   0  0  0  0  0  0  0  0  0  0  0  0
  3  7  1  0
 10 17  1  0
 17 18  1  0
  7  8  2  0
  8 10  1  0
 10 13  2  0
 13 11  1  0
  9  7  1  0
  9 11  2  0
 11 12  1  0
 12 14  2  0
 14 15  1  0
 15 16  2  0
 16  9  1  0
  1  2  2  0
  2  5  1  0
  5  6  2  0
  6  4  1  0
  4  3  2  0
  3  1  1  0
M  END
$$$$
