No_2752-complexes_sdf/6BKW-FPZ/2024-09-17-14-21-01/
     RDKit          3D

 40 45  0  0  0  0  0  0  0  0999 V2000
   -7.2496    3.8871   27.4508 C   0  0  0  0  0  0  0  0  0  0  0  0
   -8.5096    4.0291   27.2770 C   0  0  0  0  0  0  0  0  0  0  0  0
   -9.3451    2.8786   26.9046 C   0  0  0  0  0  0  0  0  0  0  0  0
  -10.6709    3.0505   26.6789 C   0  0  0  0  0  0  0  0  0  0  0  0
   -6.5987    2.6095   27.5132 C   0  0  0  0  0  0  0  0  0  0  0  0
   -7.3529    1.5121   27.2159 C   0  0  0  0  0  0  0  0  0  0  0  0
   -8.6970    1.6824   26.9913 C   0  0  0  0  0  0  0  0  0  0  0  0
  -11.4776    3.5624   27.6741 C   0  0  0  0  0  0  0  0  0  0  0  0
  -12.2884    3.2706   28.2646 C   0  0  0  0  0  0  0  0  0  0  0  0
  -13.0851    4.0740   29.2858 C   0  0  0  0  0  0  0  0  0  0  0  0
  -12.6664    1.8058   28.3639 C   0  0  0  0  0  0  0  0  0  0  0  0
   -5.2776    2.5325   27.8037 N   0  0  0  0  0  0  0  0  0  0  0  0
  -12.3009    0.9777   27.9234 C   0  0  0  0  0  0  0  0  0  0  0  0
  -12.7090   -0.4433   28.1716 C   0  0  0  0  0  0  0  0  0  0  0  0
  -13.6235   -0.5371   29.1389 C   0  0  0  0  0  0  0  0  0  0  0  0
  -13.6614    1.5245   29.5248 C   0  0  0  0  0  0  0  0  0  0  0  0
  -14.0886    0.3356   29.7822 C   0  0  0  0  0  0  0  0  0  0  0  0
  -13.8624    3.0216   30.0328 C   0  0  0  0  0  0  0  0  0  0  0  0
  -14.7773    3.2512   31.1788 C   0  0  2  0  0  0  0  0  0  0  0  0
  -15.6622    3.9427   31.1058 C   0  0  0  0  0  0  0  0  0  0  0  0
  -14.2343    2.6649   32.4239 C   0  0  0  0  0  0  0  0  0  0  0  0
  -13.5248    3.5111   33.2984 C   0  0  0  0  0  0  0  0  0  0  0  0
  -13.9071    3.8486   34.3453 C   0  0  0  0  0  0  0  0  0  0  0  0
  -13.0929    4.7397   35.1592 C   0  0  0  0  0  0  0  0  0  0  0  0
  -11.7819    5.0875   34.7216 C   0  0  0  0  0  0  0  0  0  0  0  0
  -11.3615    4.6391   33.5113 C   0  0  0  0  0  0  0  0  0  0  0  0
  -12.1994    3.8619   32.8059 C   0  0  0  0  0  0  0  0  0  0  0  0
  -15.5475    5.4307   31.1148 C   0  0  0  0  0  0  0  0  0  0  0  0
  -17.0092    3.5103   30.9625 C   0  0  0  0  0  0  0  0  0  0  0  0
  -17.8444    4.1024   30.8297 C   0  0  0  0  0  0  0  0  0  0  0  0
  -16.6127    6.2892   30.9945 C   0  0  0  0  0  0  0  0  0  0  0  0
  -17.8741    5.6212   30.8584 C   0  0  0  0  0  0  0  0  0  0  0  0
   -6.5245    0.2847   27.2062 C   0  0  0  0  0  0  0  0  0  0  0  0
   -7.1587   -0.7671   26.5578 C   0  0  0  0  0  0  0  0  0  0  0  0
   -5.2657    0.1811   27.7539 C   0  0  0  0  0  0  0  0  0  0  0  0
   -4.6277   -0.9588   27.9787 N   0  0  0  0  0  0  0  0  0  0  0  0
   -4.6682    1.4660   28.1241 C   0  0  0  0  0  0  0  0  0  0  0  0
   -4.8093   -2.0808   27.4264 C   0  0  0  0  0  0  0  0  0  0  0  0
   -6.3016   -2.0907   26.7372 C   0  0  0  0  0  0  0  0  0  0  0  0
   -8.1257   -0.9017   25.9163 O   0  0  0  0  0  0  0  0  0  0  0  0
  1  2  1  0
  2  3  1  0
  3  4  2  3
  1  5  1  0
  5  6  1  0
  3  7  1  0
  6  7  1  0
  4  8  1  0
  8  9  2  3
  9 10  1  0
  9 11  1  0
  5 12  1  0
 10 18  1  0
 16 18  1  0
 18 19  1  0
 19 20  1  0
 19 21  1  1
 21 22  1  0
  6 33  1  0
 33 34  1  0
 33 35  1  0
 35 36  1  0
 12 37  1  0
 35 37  1  0
 36 38  1  0
 38 39  2  0
 34 40  2  0
 22 23  2  0
 23 24  1  0
 24 25  2  0
 25 26  1  0
 26 27  2  0
 27 22  1  0
 11 13  2  0
 13 14  1  0
 14 15  2  0
 15 17  1  0
 17 16  2  0
 16 11  1  0
 20 28  2  0
 28 31  1  0
 31 32  2  0
 32 30  1  0
 30 29  2  0
 29 20  1  0
M  END
$$$$
