No_2922-complexes_sdf/6BKW-FPZ/2024-09-17-14-21-01/
     RDKit          3D

 12 12  0  0  0  0  0  0  0  0999 V2000
   -7.7129    4.2099   27.0854 C   0  0  0  0  0  0  0  0  0  0  0  0
   -7.7814    5.1722   27.8972 C   0  0  0  0  0  0  0  0  0  0  0  0
   -7.2983    2.9533   27.5684 C   0  0  0  0  0  0  0  0  0  0  0  0
   -7.6908    1.8111   26.9553 C   0  0  0  0  0  0  0  0  0  0  0  0
   -7.2237    0.5782   27.3450 C   0  0  0  0  0  0  0  0  0  0  0  0
   -5.9667    0.5292   27.9479 C   0  0  0  0  0  0  0  0  0  0  0  0
   -5.4359   -0.7449   28.3763 C   0  0  0  0  0  0  0  0  0  0  0  0
   -6.2928   -1.7922   28.2681 C   0  0  0  0  0  0  0  0  0  0  0  0
   -7.7970   -0.6571   27.3095 C   0  0  0  0  0  0  0  0  0  0  0  0
   -7.4698   -1.7765   27.7435 C   0  0  0  0  0  0  0  0  0  0  0  0
   -8.4865    6.3511   27.5301 C   0  0  0  0  0  0  0  0  0  0  0  0
   -8.6425    1.8560   25.9040 C   0  0  0  0  0  0  0  0  0  0  0  0
  1  2  2  3
  1  3  1  0
  3  4  1  0
  4  5  1  0
  2 11  1  0
  4 12  1  0
  5  6  2  0
  6  7  1  0
  7  8  2  0
  8 10  1  0
 10  9  2  0
  9  5  1  0
M  END
$$$$
