No_2717-complexes_sdf/6BKW-FPZ/2024-09-17-14-21-01/
     RDKit          3D

 23 24  0  0  0  0  0  0  0  0999 V2000
   -7.7129    4.2099   27.0854 C   0  0  0  0  0  0  0  0  0  0  0  0
   -8.2112    3.0637   26.9225 C   0  0  0  0  0  0  0  0  0  0  0  0
   -9.4446    2.8304   26.1868 C   0  0  0  0  0  0  0  0  0  0  0  0
   -8.4697    5.3956   26.7238 C   0  0  0  0  0  0  0  0  0  0  0  0
   -9.6172    5.2111   25.9513 C   0  0  0  0  0  0  0  0  0  0  0  0
  -10.0424    3.9782   25.6873 C   0  0  0  0  0  0  0  0  0  0  0  0
   -7.8256    6.9333   27.0525 Cl  0  0  0  0  0  0  0  0  0  0  0  0
   -7.4841    1.8412   27.3998 C   0  0  0  0  0  0  0  0  0  0  0  0
   -6.8919    1.2504   26.6981 F   0  0  0  0  0  0  0  0  0  0  0  0
   -6.5527    2.3107   28.4373 F   0  0  0  0  0  0  0  0  0  0  0  0
   -8.4420    1.1167   28.1469 F   0  0  0  0  0  0  0  0  0  0  0  0
  -11.2262    3.8061   24.8314 C   0  0  0  0  0  0  0  0  0  0  0  0
  -12.3898    3.5464   25.3945 C   0  0  0  0  0  0  0  0  0  0  0  0
  -12.5354    3.2694   26.7037 C   0  0  0  0  0  0  0  0  0  0  0  0
  -13.1548    3.4669   27.5031 C   0  0  0  0  0  0  0  0  0  0  0  0
  -13.0648    2.9477   28.9606 C   0  0  0  0  0  0  0  0  0  0  0  0
  -11.9337    2.1400   29.1628 C   0  0  0  0  0  0  0  0  0  0  0  0
  -11.1370    1.8505   28.1854 C   0  0  0  0  0  0  0  0  0  0  0  0
  -11.2885    2.3581   26.9638 C   0  0  0  0  0  0  0  0  0  0  0  0
  -10.7885    1.5912   25.8189 C   0  0  0  0  0  0  0  0  0  0  0  0
   -8.7101    2.2964   24.9961 O   0  0  0  0  0  0  0  0  0  0  0  0
  -11.2146    0.7010   25.1262 C   0  0  0  0  0  0  0  0  0  0  0  0
  -10.2754    0.8307   26.5588 O   0  0  0  0  0  0  0  0  0  0  0  0
  4  7  1  0
  2  8  1  0
  8  9  1  0
  8 10  1  0
  8 11  1  0
  6 12  1  0
 12 13  1  0
 13 14  1  0
 19 20  1  0
  3 21  1  0
 20 22  1  0
 20 23  2  0
 14 15  2  0
 15 16  1  0
 16 17  2  0
 17 18  1  0
 18 19  2  0
 19 14  1  0
  1  2  2  0
  2  3  1  0
  3  6  2  0
  6  5  1  0
  5  4  2  0
  4  1  1  0
M  END
$$$$
