No_2169-complexes_sdf/6BKW-FPZ/2024-09-17-14-21-01/
     RDKit          3D

 24 27  0  0  0  0  0  0  0  0999 V2000
   -7.2496    3.8871   27.4508 C   0  0  0  0  0  0  0  0  0  0  0  0
   -7.9379    4.9063   27.8518 C   0  0  0  0  0  0  0  0  0  0  0  0
   -9.3460    4.8223   27.8695 C   0  0  0  0  0  0  0  0  0  0  0  0
   -7.8628    2.6163   27.1065 C   0  0  0  0  0  0  0  0  0  0  0  0
   -9.2787    2.5744   27.1970 C   0  0  0  0  0  0  0  0  0  0  0  0
  -10.0108    3.6770   27.6340 C   0  0  0  0  0  0  0  0  0  0  0  0
  -11.4834    3.5674   27.7432 C   0  0  0  0  0  0  0  0  0  0  0  0
  -11.9395    2.6434   28.4995 C   0  0  0  0  0  0  0  0  0  0  0  0
  -13.3550    2.4593   28.7913 C   0  0  0  0  0  0  0  0  0  0  0  0
  -13.8026    1.4019   29.5768 C   0  0  0  0  0  0  0  0  0  0  0  0
  -12.9671    0.2771   29.6259 C   0  0  0  0  0  0  0  0  0  0  0  0
  -11.6776    0.2611   29.0722 C   0  0  0  0  0  0  0  0  0  0  0  0
  -11.1771    1.4708   28.5101 C   0  0  0  0  0  0  0  0  0  0  0  0
   -9.8021    1.4110   28.0297 C   0  0  0  0  0  0  0  0  0  0  0  0
   -7.3212    6.1221   27.9667 O   0  0  0  0  0  0  0  0  0  0  0  0
  -12.2349    4.7837   27.3013 C   0  0  0  0  0  0  0  0  0  0  0  0
  -15.1435    1.3724   30.1473 C   0  0  0  0  0  0  0  0  0  0  0  0
  -15.4997    2.1012   31.2321 C   0  0  0  0  0  0  0  0  0  0  0  0
  -14.6574    2.5617   32.0349 C   0  0  0  0  0  0  0  0  0  0  0  0
  -14.9776    3.4497   33.2096 C   0  0  0  0  0  0  0  0  0  0  0  0
  -16.2816    3.6612   33.4219 C   0  0  0  0  0  0  0  0  0  0  0  0
  -17.2274    3.1492   32.5680 C   0  0  0  0  0  0  0  0  0  0  0  0
  -16.8580    2.4129   31.5188 C   0  0  0  0  0  0  0  0  0  0  0  0
  -15.8176    0.3975   29.7913 O   0  0  0  0  0  0  0  0  0  0  0  0
  2 15  1  0
  7 16  1  0
 10 17  1  0
 17 18  1  0
 17 24  2  0
 18 19  2  0
 19 20  1  0
 20 21  2  0
 21 22  1  0
 22 23  2  0
 23 18  1  0
  1  2  2  0
  2  3  1  0
  3  6  2  0
  5  4  2  0
  4  1  1  0
  8  9  1  0
  9 10  2  0
 10 11  1  0
 11 12  2  0
 12 13  1  0
  5  6  1  0
  6  7  1  0
  7  8  2  0
  8 13  1  0
 13 14  2  0
 14  5  1  0
M  END
$$$$
