No_2436-complexes_sdf/6BKW-FPZ/2024-09-17-14-21-01/
     RDKit          3D

 18 19  0  0  0  0  0  0  0  0999 V2000
   -7.7129    4.2099   27.0854 C   0  0  0  0  0  0  0  0  0  0  0  0
   -8.9133    4.4736   27.0998 C   0  0  0  0  0  0  0  0  0  0  0  0
   -9.8363    3.8127   27.2418 C   0  0  0  0  0  0  0  0  0  0  0  0
   -7.2995    2.8520   27.3808 C   0  0  0  0  0  0  0  0  0  0  0  0
   -8.3404    1.9507   27.4989 C   0  0  0  0  0  0  0  0  0  0  0  0
   -9.6166    2.3791   27.4719 C   0  0  0  0  0  0  0  0  0  0  0  0
   -9.3656    5.9824   26.9817 C   0  0  0  0  0  0  0  0  0  0  0  0
   -9.1667    6.5114   25.8274 F   0  0  0  0  0  0  0  0  0  0  0  0
   -8.4732    6.8072   27.8164 F   0  0  0  0  0  0  0  0  0  0  0  0
  -10.5564    6.1847   27.4694 F   0  0  0  0  0  0  0  0  0  0  0  0
   -7.9713    0.5368   27.6356 C   0  0  0  0  0  0  0  0  0  0  0  0
   -8.9836   -0.4819   27.6651 C   0  0  0  0  0  0  0  0  0  0  0  0
   -8.6172   -1.8061   27.8919 C   0  0  0  0  0  0  0  0  0  0  0  0
   -7.2559   -2.1002   28.0419 C   0  0  0  0  0  0  0  0  0  0  0  0
   -6.6263    0.0171   27.8023 C   0  0  0  0  0  0  0  0  0  0  0  0
   -6.2723   -1.1710   27.9577 C   0  0  0  0  0  0  0  0  0  0  0  0
   -9.6015   -2.6895   28.0142 F   0  0  0  0  0  0  0  0  0  0  0  0
   -5.0248   -1.5325   28.1446 F   0  0  0  0  0  0  0  0  0  0  0  0
  2  7  1  0
  7  8  1  0
  7  9  1  0
  7 10  1  0
  5 11  1  0
 13 17  1  0
 16 18  1  0
  1  2  2  0
  2  3  1  0
  3  6  2  0
  6  5  1  0
  5  4  2  0
  4  1  1  0
 11 12  2  0
 12 13  1  0
 13 14  2  0
 14 16  1  0
 16 15  2  0
 15 11  1  0
M  END
$$$$
