No_2175-complexes_sdf/6BKW-FPZ/2024-09-17-14-21-01/
     RDKit          3D

 13 13  0  0  0  0  0  0  0  0999 V2000
   -7.2496    3.8871   27.4508 C   0  0  0  0  0  0  0  0  0  0  0  0
   -7.9379    4.9063   27.8518 C   0  0  0  0  0  0  0  0  0  0  0  0
   -7.4895    6.2027   27.7481 C   0  0  0  0  0  0  0  0  0  0  0  0
   -7.8057    2.6324   27.3137 C   0  0  0  0  0  0  0  0  0  0  0  0
   -9.1872    2.4678   27.5434 C   0  0  0  0  0  0  0  0  0  0  0  0
   -9.7707    1.1571   27.4183 C   0  0  0  0  0  0  0  0  0  0  0  0
  -10.0181    3.4604   28.0644 C   0  0  0  0  0  0  0  0  0  0  0  0
   -9.4078    4.8000   28.1253 C   0  0  0  0  0  0  0  0  0  0  0  0
  -10.5537    0.9181   26.3735 C   0  0  0  0  0  0  0  0  0  0  0  0
  -10.8365    1.5439   25.3964 C   0  0  0  0  0  0  0  0  0  0  0  0
  -10.2088    2.8800   25.2360 C   0  0  0  0  0  0  0  0  0  0  0  0
  -10.3814    3.6477   23.9084 C   0  0  0  0  0  0  0  0  0  0  0  0
  -10.1852    5.0555   24.0097 C   0  0  0  0  0  0  0  0  0  0  0  0
  2  3  1  0
  5  6  1  0
  6  9  1  0
  9 10  2  3
 10 11  1  0
 11 12  2  3
 12 13  1  0
  1  2  2  0
  2  8  1  0
  8  7  2  0
  7  5  1  0
  5  4  2  0
  4  1  1  0
M  END
$$$$
