No_2902-complexes_sdf/6BKW-FPZ/2024-09-17-14-21-01/
     RDKit          3D

 40 45  0  0  0  0  0  0  0  0999 V2000
   -7.7129    4.2099   27.0854 C   0  0  0  0  0  0  0  0  0  0  0  0
   -7.7814    5.1722   27.8972 C   0  0  0  0  0  0  0  0  0  0  0  0
   -7.3155    2.9699   27.6145 C   0  0  0  0  0  0  0  0  0  0  0  0
   -7.9010    1.7962   27.2023 C   0  0  0  0  0  0  0  0  0  0  0  0
   -7.4186    0.5908   27.4662 C   0  0  0  0  0  0  0  0  0  0  0  0
   -8.5380    6.3719   27.5386 C   0  0  0  0  0  0  0  0  0  0  0  0
   -6.1096    0.4861   28.0096 C   0  0  0  0  0  0  0  0  0  0  0  0
   -5.3301    1.6667   28.1493 C   0  0  0  0  0  0  0  0  0  0  0  0
   -5.8582    2.8450   27.8312 C   0  0  0  0  0  0  0  0  0  0  0  0
   -8.8886    4.2803   26.2467 C   0  0  0  0  0  0  0  0  0  0  0  0
   -9.5209    5.3796   25.7391 C   0  0  0  0  0  0  0  0  0  0  0  0
   -9.2994    6.5322   26.5095 C   0  0  0  0  0  0  0  0  0  0  0  0
   -5.5094   -0.8308   28.2609 C   0  0  0  0  0  0  0  0  0  0  0  0
   -6.1136   -1.7335   28.5582 O   0  0  0  0  0  0  0  0  0  0  0  0
   -4.2107   -0.7851   28.6631 O   0  0  0  0  0  0  0  0  0  0  0  0
   -3.5677   -1.6296   29.0409 C   0  0  0  0  0  0  0  0  0  0  0  0
   -2.9359   -2.5635   28.6348 C   0  0  0  0  0  0  0  0  0  0  0  0
   -3.4773   -1.4884   30.6421 C   0  0  0  0  0  0  0  0  0  0  0  0
   -2.7747   -2.3924   31.4255 C   0  0  0  0  0  0  0  0  0  0  0  0
   -2.1210   -3.5270   29.3744 C   0  0  0  0  0  0  0  0  0  0  0  0
   -2.0321   -3.3646   30.7795 C   0  0  0  0  0  0  0  0  0  0  0  0
   -9.1030    3.0045   25.3556 C   0  0  0  0  0  0  0  0  0  0  0  0
   -8.9180    1.7652   26.1482 C   0  0  1  0  0  0  0  0  0  0  0  0
   -9.5350    0.5971   25.6606 C   0  0  1  0  0  0  0  0  0  0  0  0
  -10.6222    0.1046   26.3377 C   0  0  0  0  0  0  0  0  0  0  0  0
  -11.4650    0.8315   26.9789 C   0  0  0  0  0  0  0  0  0  0  0  0
  -12.4540    0.3014   27.9021 C   0  0  0  0  0  0  0  0  0  0  0  0
  -12.6185   -1.0672   27.8801 C   0  0  0  0  0  0  0  0  0  0  0  0
  -11.7912   -1.8964   27.1856 C   0  0  0  0  0  0  0  0  0  0  0  0
  -10.7175   -1.3583   26.4484 C   0  0  0  0  0  0  0  0  0  0  0  0
   -9.8865    0.6137   24.1213 C   0  0  0  0  0  0  0  0  0  0  0  0
  -10.9925    1.1323   23.6679 C   0  0  0  0  0  0  0  0  0  0  0  0
  -11.1993    1.1555   22.3326 C   0  0  0  0  0  0  0  0  0  0  0  0
   -8.9516    0.0226   23.2819 C   0  0  0  0  0  0  0  0  0  0  0  0
   -9.0305    0.1293   21.9038 C   0  0  0  0  0  0  0  0  0  0  0  0
  -10.2130    0.6899   21.4287 C   0  0  0  0  0  0  0  0  0  0  0  0
   -9.8616   -2.2385   25.6871 C   0  0  1  0  0  0  0  0  0  0  0  0
   -8.6629   -2.6119   26.3273 C   0  0  0  0  0  0  0  0  0  0  0  0
   -8.1947   -3.7598   26.0111 C   0  0  0  0  0  0  0  0  0  0  0  0
  -10.2101   -2.7193   24.5074 C   0  0  0  0  0  0  0  0  0  0  0  0
  1  3  1  0
  7 13  1  0
 13 14  2  0
 13 15  1  0
 15 16  1  0
 10 22  1  0
  4 23  1  0
 23 22  1  6
 23 24  1  0
 24 25  1  1
 24 31  1  0
 30 37  1  0
 37 38  1  0
 38 39  2  0
 37 40  1  1
 25 26  2  0
 26 27  1  0
 27 28  2  0
 28 29  1  0
 29 30  2  0
 30 25  1  0
 16 17  2  0
 17 20  1  0
 20 21  2  0
 21 19  1  0
 19 18  2  0
 18 16  1  0
  1  2  2  0
  2  6  1  0
  6 12  2  0
 12 11  1  0
 11 10  2  0
 10  1  1  0
 31 32  2  0
 32 33  1  0
 33 36  2  0
 36 35  1  0
 35 34  2  0
 34 31  1  0
  3  4  2  0
  4  5  1  0
  5  7  2  0
  7  8  1  0
  8  9  2  0
  9  3  1  0
M  END
$$$$
