No_2354-complexes_sdf/6BKW-FPZ/2024-09-17-14-21-01/
     RDKit          3D

 40 43  0  0  0  0  0  0  0  0999 V2000
   -7.9040    3.9820   27.1177 C   0  0  0  0  0  0  0  0  0  0  0  0
   -8.2057    2.8231   26.8733 C   0  0  0  0  0  0  0  0  0  0  0  0
   -8.7695    5.0740   26.7916 C   0  0  0  0  0  0  0  0  0  0  0  0
   -8.4337    6.4678   27.0913 C   0  0  0  0  0  0  0  0  0  0  0  0
   -9.3742    2.4311   26.2346 C   0  0  0  0  0  0  0  0  0  0  0  0
  -10.2395    3.4267   25.8887 C   0  0  0  0  0  0  0  0  0  0  0  0
   -9.9567    4.7548   26.1374 C   0  0  0  0  0  0  0  0  0  0  0  0
   -8.5487    6.7970   28.2303 F   0  0  0  0  0  0  0  0  0  0  0  0
   -9.2267    7.3313   26.2905 F   0  0  0  0  0  0  0  0  0  0  0  0
   -7.0999    6.7109   26.8189 F   0  0  0  0  0  0  0  0  0  0  0  0
   -7.2401    1.6939   27.3123 C   0  0  1  0  0  0  0  0  0  0  0  0
   -6.6674    0.9186   26.8805 N   0  0  0  0  0  0  0  0  0  0  0  0
   -5.7520    0.2085   27.6584 C   0  0  0  0  0  0  0  0  0  0  0  0
   -5.2888    1.0318   28.6521 C   0  0  0  0  0  0  0  0  0  0  0  0
   -6.2613    2.2470   28.4832 C   0  0  0  0  0  0  0  0  0  0  0  0
   -5.1298   -1.0426   27.3405 C   0  0  0  0  0  0  0  0  0  0  0  0
   -5.7779   -1.9686   26.9258 C   0  0  1  0  0  0  0  0  0  0  0  0
   -7.2360   -1.8482   26.8246 C   0  0  0  0  0  0  0  0  0  0  0  0
   -7.9532   -1.8756   27.7844 C   0  0  0  0  0  0  0  0  0  0  0  0
   -9.4514   -1.7757   27.7773 C   0  0  0  0  0  0  0  0  0  0  0  0
  -10.0277   -1.7098   26.5398 C   0  0  0  0  0  0  0  0  0  0  0  0
   -9.2188   -1.8010   25.4141 C   0  0  0  0  0  0  0  0  0  0  0  0
   -7.8508   -1.8507   25.5142 C   0  0  0  0  0  0  0  0  0  0  0  0
   -4.2722    0.9332   29.5225 C   0  0  0  0  0  0  0  0  0  0  0  0
   -3.4579   -0.2765   29.3536 C   0  0  0  0  0  0  0  0  0  0  0  0
   -2.3188   -0.5898   30.1960 C   0  0  0  0  0  0  0  0  0  0  0  0
   -3.8676   -1.2105   28.3255 C   0  0  0  0  0  0  0  0  0  0  0  0
   -2.4736   -0.3161   31.3991 O   0  0  0  0  0  0  0  0  0  0  0  0
   -1.3095   -1.1609   29.7054 O   0  0  0  0  0  0  0  0  0  0  0  0
   -9.8303   -1.7661   24.2280 F   0  0  0  0  0  0  0  0  0  0  0  0
   -5.1492   -3.1219   26.2847 C   0  0  0  0  0  0  0  0  0  0  0  0
  -11.6875    3.0901   25.0314 Cl  0  0  0  0  0  0  0  0  0  0  0  0
   -2.2464   -1.2799   32.3940 C   0  0  0  0  0  0  0  0  0  0  0  0
   -2.3973   -0.6770   33.6768 C   0  0  0  0  0  0  0  0  0  0  0  0
   -3.4717   -1.0200   34.5153 C   0  0  1  0  0  0  0  0  0  0  0  0
   -3.2721   -2.1784   35.0112 O   0  0  0  0  0  0  0  0  0  0  0  0
   -4.2774   -2.8143   35.5631 C   0  0  0  0  0  0  0  0  0  0  0  0
   -5.4157   -2.3539   35.3016 C   0  0  0  0  0  0  0  0  0  0  0  0
   -5.4835   -1.0818   34.5991 C   0  0  0  0  0  0  0  0  0  0  0  0
   -3.5555    0.0832   35.1545 O   0  0  0  0  0  0  0  0  0  0  0  0
  3  4  1  0
  4  8  1  0
  4  9  1  0
  4 10  1  0
 11  2  1  6
 11 12  1  0
 12 13  1  0
 11 15  1  0
 14 15  1  0
 17 18  1  0
 25 26  1  0
 26 28  1  0
 26 29  2  0
 22 30  1  0
 17 31  1  6
  6 32  1  0
 28 33  1  0
 33 34  1  0
 34 35  1  0
 35 36  1  0
 36 37  1  0
 37 38  2  3
 38 39  1  0
 35 40  1  1
 17 16  1  0
 18 19  2  0
 19 20  1  0
 20 21  2  0
 21 22  1  0
 22 23  2  0
 23 18  1  0
  1  2  2  0
  2  5  1  0
  5  6  2  0
  6  7  1  0
  7  3  2  0
  3  1  1  0
 13 14  2  0
 14 24  1  0
 24 25  2  0
 25 27  1  0
 27 16  2  0
 16 13  1  0
M  END
$$$$
