No_2745-complexes_sdf/6BKW-FPZ/2024-09-17-14-21-01/
     RDKit          3D

 21 23  0  0  0  0  0  0  0  0999 V2000
   -7.7129    4.2099   27.0854 C   0  0  0  0  0  0  0  0  0  0  0  0
   -8.2112    3.0637   26.9225 C   0  0  0  0  0  0  0  0  0  0  0  0
   -7.5138    1.9223   27.4249 C   0  0  0  0  0  0  0  0  0  0  0  0
   -8.5309    5.4147   26.8151 C   0  0  0  0  0  0  0  0  0  0  0  0
   -9.6817    5.2393   26.1100 C   0  0  0  0  0  0  0  0  0  0  0  0
  -10.1032    3.9957   25.8534 C   0  0  0  0  0  0  0  0  0  0  0  0
   -9.4034    2.8430   26.2573 C   0  0  0  0  0  0  0  0  0  0  0  0
   -8.0069    0.6506   27.2927 N   0  0  0  0  0  0  0  0  0  0  0  0
   -9.2055    0.4001   27.2689 C   0  0  1  0  0  0  0  0  0  0  0  0
  -10.0552    1.4353   26.4592 C   0  0  1  0  0  0  0  0  0  0  0  0
   -6.2188    2.1548   27.6760 O   0  0  0  0  0  0  0  0  0  0  0  0
   -7.9453    6.7730   27.0202 C   0  0  0  0  0  0  0  0  0  0  0  0
   -8.1806    7.8403   26.8653 N   0  0  0  0  0  0  0  0  0  0  0  0
   -6.8229    6.6310   27.9249 O   0  0  0  0  0  0  0  0  0  0  0  0
   -7.1547   -0.3541   27.7559 C   0  0  0  0  0  0  0  0  0  0  0  0
   -7.6600   -1.6182   27.9131 C   0  0  0  0  0  0  0  0  0  0  0  0
   -9.0663   -1.7712   27.7266 C   0  0  0  0  0  0  0  0  0  0  0  0
   -9.8722   -0.7463   27.3643 C   0  0  0  0  0  0  0  0  0  0  0  0
  -11.4042    1.2715   26.1479 C   0  0  0  0  0  0  0  0  0  0  0  0
  -11.7373    0.6837   25.2055 C   0  0  0  0  0  0  0  0  0  0  0  0
  -13.1171    0.4397   24.8392 C   0  0  0  0  0  0  0  0  0  0  0  0
  2  3  1  0
  3  8  1  0
  8  9  1  0
  7 10  1  0
  9 10  1  0
  3 11  2  0
  4 12  1  0
 12 13  2  0
 12 14  1  0
  8 15  1  0
 16 17  1  0
  9 18  1  6
 10 19  1  1
 19 20  2  3
 20 21  1  0
 18 17  1  0
 16 15  1  0
  1  2  2  0
  2  7  1  0
  7  6  2  0
  6  5  1  0
  5  4  2  0
  4  1  1  0
M  END
$$$$
