No_2734-complexes_sdf/6BKW-FPZ/2024-09-17-14-21-01/
     RDKit          3D

 13 13  0  0  0  0  0  0  0  0999 V2000
   -7.7129    4.2099   27.0854 C   0  0  0  0  0  0  0  0  0  0  0  0
   -8.9133    4.4736   27.0998 C   0  0  0  0  0  0  0  0  0  0  0  0
   -9.4643    5.5426   27.7628 C   0  0  1  0  0  0  0  0  0  0  0  0
   -9.8091    3.6358   26.2841 C   0  0  0  0  0  0  0  0  0  0  0  0
   -9.4101    2.5938   25.7918 C   0  0  0  0  0  0  0  0  0  0  0  0
   -7.2012    2.8508   26.8768 C   0  0  0  0  0  0  0  0  0  0  0  0
   -8.0866    2.0216   26.2188 C   0  0  0  0  0  0  0  0  0  0  0  0
   -7.6545    0.6806   25.8405 C   0  0  0  0  0  0  0  0  0  0  0  0
   -6.5346    0.3798   26.3478 F   0  0  0  0  0  0  0  0  0  0  0  0
   -8.6174   -0.1915   26.3440 F   0  0  0  0  0  0  0  0  0  0  0  0
   -7.5661    0.4992   24.5813 F   0  0  0  0  0  0  0  0  0  0  0  0
   -8.5104    6.8441   27.9615 Cl  0  0  0  0  0  0  0  0  0  0  0  0
  -10.8819    5.9658   27.1650 C   0  0  0  0  0  0  0  0  0  0  0  0
  2  3  1  0
  7  8  1  0
  8  9  1  0
  8 10  1  0
  8 11  1  0
  3 12  1  0
  3 13  1  6
  1  2  2  0
  2  4  1  0
  4  5  2  0
  5  7  1  0
  7  6  2  0
  6  1  1  0
M  END
$$$$
