No_2318-complexes_sdf/6BKW-FPZ/2024-09-17-14-21-01/
     RDKit          3D

 32 35  0  0  0  0  0  0  0  0999 V2000
   -7.9040    3.9820   27.1177 C   0  0  0  0  0  0  0  0  0  0  0  0
   -8.2057    2.8231   26.8733 C   0  0  0  0  0  0  0  0  0  0  0  0
   -8.7695    5.0740   26.7916 C   0  0  0  0  0  0  0  0  0  0  0  0
   -8.4337    6.4678   27.0913 C   0  0  0  0  0  0  0  0  0  0  0  0
   -9.3742    2.4311   26.2346 C   0  0  0  0  0  0  0  0  0  0  0  0
  -10.2395    3.4267   25.8887 C   0  0  0  0  0  0  0  0  0  0  0  0
   -9.9567    4.7548   26.1374 C   0  0  0  0  0  0  0  0  0  0  0  0
   -7.8881    6.8714   28.1602 N   0  0  0  0  0  0  0  0  0  0  0  0
   -8.7714    7.4102   26.1908 N   0  0  0  0  0  0  0  0  0  0  0  0
   -7.2517    1.6778   27.2784 C   0  0  0  0  0  0  0  0  0  0  0  0
   -7.5645    0.3299   27.1678 C   0  0  0  0  0  0  0  0  0  0  0  0
   -6.5851   -0.5595   27.3913 C   0  0  0  0  0  0  0  0  0  0  0  0
   -5.3357   -0.1607   27.9188 C   0  0  0  0  0  0  0  0  0  0  0  0
   -5.0641    1.2024   28.0992 C   0  0  0  0  0  0  0  0  0  0  0  0
   -5.9233    2.1012   27.7505 C   0  0  0  0  0  0  0  0  0  0  0  0
   -4.3178   -1.1798   28.3089 C   0  0  0  0  0  0  0  0  0  0  0  0
   -3.6574   -1.6571   27.6547 N   0  0  0  0  0  0  0  0  0  0  0  0
   -4.2762   -1.4598   29.7959 C   0  0  0  0  0  0  0  0  0  0  0  0
   -4.9238   -0.8467   30.7942 C   0  0  0  0  0  0  0  0  0  0  0  0
   -4.7734   -1.1473   32.1500 C   0  0  0  0  0  0  0  0  0  0  0  0
   -3.8604   -2.0957   32.5170 C   0  0  0  0  0  0  0  0  0  0  0  0
   -3.1009   -2.7055   31.5578 C   0  0  0  0  0  0  0  0  0  0  0  0
   -3.2277   -2.3758   30.2292 C   0  0  0  0  0  0  0  0  0  0  0  0
   -3.3497   -1.4279   26.4954 C   0  0  0  0  0  0  0  0  0  0  0  0
   -3.5223   -0.1884   25.9892 C   0  0  0  0  0  0  0  0  0  0  0  0
   -1.8819   -1.7946   26.0814 C   0  0  0  0  0  0  0  0  0  0  0  0
   -4.1772   -2.4706   25.6280 C   0  0  0  0  0  0  0  0  0  0  0  0
   -3.7734   -3.6934   25.5371 C   0  0  0  0  0  0  0  0  0  0  0  0
   -4.7148   -4.5082   24.8251 C   0  0  0  0  0  0  0  0  0  0  0  0
   -5.7710   -3.9484   24.2304 C   0  0  0  0  0  0  0  0  0  0  0  0
   -6.1101   -2.6035   24.3088 C   0  0  0  0  0  0  0  0  0  0  0  0
   -5.2681   -1.8785   24.9980 C   0  0  0  0  0  0  0  0  0  0  0  0
  3  4  1  0
  4  8  2  0
  4  9  1  0
  2 10  1  0
 13 16  1  0
 16 17  2  3
 16 18  1  0
 17 24  1  0
 24 25  1  0
 24 26  1  0
 24 27  1  0
 18 19  2  0
 19 20  1  0
 20 21  2  0
 21 22  1  0
 22 23  2  0
 23 18  1  0
 27 28  2  0
 28 29  1  0
 29 30  2  0
 30 31  1  0
 31 32  2  0
 32 27  1  0
  1  2  2  0
  2  5  1  0
  5  6  2  0
  6  7  1  0
  7  3  2  0
  3  1  1  0
 10 11  2  0
 11 12  1  0
 12 13  2  0
 13 14  1  0
 14 15  2  0
 15 10  1  0
M  END
$$$$
