No_2786-complexes_sdf/6BKW-FPZ/2024-09-17-14-21-01/
     RDKit          3D

 14 15  0  0  0  0  0  0  0  0999 V2000
   -7.2496    3.8871   27.4508 C   0  0  0  0  0  0  0  0  0  0  0  0
   -7.6161    2.7143   27.1523 C   0  0  0  0  0  0  0  0  0  0  0  0
   -8.6007    2.2754   27.5344 C   0  0  0  0  0  0  0  0  0  0  0  0
   -8.1723    4.9077   27.9308 C   0  0  0  0  0  0  0  0  0  0  0  0
   -9.4370    4.4191   28.1790 C   0  0  0  0  0  0  0  0  0  0  0  0
   -9.7217    3.1013   28.0011 C   0  0  0  0  0  0  0  0  0  0  0  0
   -7.7254    6.5138   28.1499 Cl  0  0  0  0  0  0  0  0  0  0  0  0
   -9.1020    0.8040   27.3387 C   0  0  0  0  0  0  0  0  0  0  0  0
  -10.3053    0.3747   27.7264 C   0  0  0  0  0  0  0  0  0  0  0  0
  -11.2591    1.3596   28.2133 C   0  0  0  0  0  0  0  0  0  0  0  0
  -10.9809    2.6185   28.3821 C   0  0  0  0  0  0  0  0  0  0  0  0
   -8.1108   -0.1412   26.8702 C   0  0  0  0  0  0  0  0  0  0  0  0
   -7.5980   -0.1439   25.9756 C   0  0  0  0  0  0  0  0  0  0  0  0
   -6.6120   -1.1315   25.4706 C   0  0  0  0  0  0  0  0  0  0  0  0
  4  7  1  0
  8 12  1  0
 12 13  2  3
 13 14  1  0
  1  2  2  0
  2  3  1  0
  6  5  1  0
  5  4  2  0
  4  1  1  0
  3  6  2  0
  6 11  1  0
 11 10  2  0
 10  9  1  0
  9  8  2  0
  8  3  1  0
M  END
$$$$
