No_2541-complexes_sdf/6BKW-FPZ/2024-09-17-14-21-01/
     RDKit          3D

 20 21  0  0  0  0  0  0  0  0999 V2000
   -7.9040    3.9820   27.1177 C   0  0  0  0  0  0  0  0  0  0  0  0
   -7.8663    4.8694   27.9238 C   0  0  0  0  0  0  0  0  0  0  0  0
   -7.4547    2.7080   27.4594 C   0  0  0  0  0  0  0  0  0  0  0  0
   -7.9337    1.5946   26.8372 C   0  0  0  0  0  0  0  0  0  0  0  0
   -8.9032    1.7881   25.8510 C   0  0  0  0  0  0  0  0  0  0  0  0
   -9.3787    2.9871   25.5530 C   0  0  0  0  0  0  0  0  0  0  0  0
   -8.9781    4.0300   26.2200 C   0  0  0  0  0  0  0  0  0  0  0  0
   -8.2132    6.2312   27.6173 N   0  0  0  0  0  0  0  0  0  0  0  0
   -9.1014    6.5119   26.6241 C   0  0  0  0  0  0  0  0  0  0  0  0
   -9.5143    5.3947   25.8857 C   0  0  0  0  0  0  0  0  0  0  0  0
   -7.3340    0.2629   27.1258 C   0  0  0  0  0  0  0  0  0  0  0  0
   -8.0394   -0.8639   27.0769 C   0  0  0  0  0  0  0  0  0  0  0  0
   -9.2652   -0.9178   27.0825 C   0  0  0  0  0  0  0  0  0  0  0  0
  -10.0445    0.2018   27.5021 C   0  0  0  0  0  0  0  0  0  0  0  0
  -11.4378    0.0070   28.0703 C   0  0  0  0  0  0  0  0  0  0  0  0
  -12.0786    1.1392   28.5940 C   0  0  0  0  0  0  0  0  0  0  0  0
  -11.4365    2.4333   28.4872 C   0  0  0  0  0  0  0  0  0  0  0  0
  -12.1761    3.5631   29.0164 C   0  0  0  0  0  0  0  0  0  0  0  0
  -13.3660    3.4307   29.6573 C   0  0  0  0  0  0  0  0  0  0  0  0
  -13.9253    2.1740   29.8111 C   0  0  0  0  0  0  0  0  0  0  0  0
  4 11  1  0
 11 12  1  0
 12 13  2  3
 13 14  1  0
 14 15  1  0
 15 16  2  3
 16 17  1  0
 17 18  1  0
 18 19  2  3
 19 20  1  0
  1  2  2  0
  2  8  1  0
  8  9  2  0
  9 10  1  0
 10  7  2  0
  1  3  1  0
  3  4  2  0
  4  5  1  0
  5  6  2  0
  6  7  1  0
  7  1  1  0
M  END
$$$$
