No_2109-complexes_sdf/6BKW-FPZ/2024-09-17-14-21-01/
     RDKit          3D

 10 11  0  0  0  0  0  0  0  0999 V2000
   -7.7129    4.2099   27.0854 C   0  0  0  0  0  0  0  0  0  0  0  0
   -8.2112    3.0637   26.9225 C   0  0  0  0  0  0  0  0  0  0  0  0
   -8.4224    5.2106   27.8516 C   0  0  0  0  0  0  0  0  0  0  0  0
   -9.5628    2.7160   27.4089 C   0  0  0  0  0  0  0  0  0  0  0  0
  -10.2639    3.7034   28.1156 C   0  0  0  0  0  0  0  0  0  0  0  0
   -9.7059    4.9514   28.3169 C   0  0  0  0  0  0  0  0  0  0  0  0
  -10.1363    1.3870   27.2388 C   0  0  0  0  0  0  0  0  0  0  0  0
   -9.2576    0.3984   27.0588 C   0  0  0  0  0  0  0  0  0  0  0  0
   -7.9217    0.6687   26.6410 C   0  0  0  0  0  0  0  0  0  0  0  0
   -7.4461    1.9331   26.5861 N   0  0  0  0  0  0  0  0  0  0  0  0
  1  2  2  0
  4  5  2  0
  5  6  1  0
  6  3  2  0
  3  1  1  0
  2  4  1  0
  4  7  1  0
  7  8  2  0
  8  9  1  0
  9 10  2  0
 10  2  1  0
M  END
$$$$
