No_2051-complexes_sdf/6BKW-FPZ/2024-09-17-14-21-01/
     RDKit          3D

 38 43  0  0  0  0  0  0  0  0999 V2000
   -7.7129    4.2099   27.0854 C   0  0  0  0  0  0  0  0  0  0  0  0
   -7.7814    5.1722   27.8972 C   0  0  0  0  0  0  0  0  0  0  0  0
   -8.8776    3.8408   26.3416 C   0  0  0  0  0  0  0  0  0  0  0  0
   -9.9844    4.6492   26.4743 C   0  0  0  0  0  0  0  0  0  0  0  0
   -8.8033    6.1375   27.8728 C   0  0  0  0  0  0  0  0  0  0  0  0
   -9.9554    5.8280   27.1737 C   0  0  0  0  0  0  0  0  0  0  0  0
   -8.8752    2.6155   25.5663 C   0  0  0  0  0  0  0  0  0  0  0  0
   -8.2641    1.5329   26.1081 N   0  0  0  0  0  0  0  0  0  0  0  0
   -8.8034    0.4958   26.5101 C   0  0  0  0  0  0  0  0  0  0  0  0
   -8.0360   -0.5219   27.2162 C   0  0  0  0  0  0  0  0  0  0  0  0
  -10.2123    0.2221   26.3983 C   0  0  0  0  0  0  0  0  0  0  0  0
   -6.6582   -0.3378   27.4725 C   0  0  0  0  0  0  0  0  0  0  0  0
   -5.8493   -1.2757   28.0485 C   0  0  0  0  0  0  0  0  0  0  0  0
   -4.4716   -0.9812   28.3542 C   0  0  0  0  0  0  0  0  0  0  0  0
   -3.9679    0.3345   28.0861 C   0  0  0  0  0  0  0  0  0  0  0  0
   -4.8548    1.3168   27.6406 C   0  0  0  0  0  0  0  0  0  0  0  0
   -6.1235    1.0424   27.3698 C   0  0  0  0  0  0  0  0  0  0  0  0
  -11.0044   -0.0514   27.0761 C   0  0  0  0  0  0  0  0  0  0  0  0
  -12.4281   -0.2851   26.9128 C   0  0  0  0  0  0  0  0  0  0  0  0
  -12.8489    0.0357   25.6754 C   0  0  0  0  0  0  0  0  0  0  0  0
  -12.0072    0.4671   24.7381 C   0  0  0  0  0  0  0  0  0  0  0  0
  -10.6550    0.6181   25.0160 C   0  0  0  0  0  0  0  0  0  0  0  0
   -9.4765    2.6641   24.5075 O   0  0  0  0  0  0  0  0  0  0  0  0
   -3.5710   -1.9625   28.9797 C   0  0  0  0  0  0  0  0  0  0  0  0
   -3.5432   -2.0570   30.2875 C   0  0  0  0  0  0  0  0  0  0  0  0
   -4.2026   -1.2602   31.1322 C   0  0  0  0  0  0  0  0  0  0  0  0
   -4.1016   -1.3393   32.6084 C   0  0  0  0  0  0  0  0  0  0  0  0
   -3.2880   -2.2741   33.1476 C   0  0  0  0  0  0  0  0  0  0  0  0
   -2.5294   -3.0443   32.3013 C   0  0  0  0  0  0  0  0  0  0  0  0
   -2.5833   -2.9190   30.9599 C   0  0  0  0  0  0  0  0  0  0  0  0
   -3.5959   -3.2140   28.1835 C   0  0  0  0  0  0  0  0  0  0  0  0
   -2.0697   -1.2967   28.5973 C   0  0  0  0  0  0  0  0  0  0  0  0
   -3.7592   -3.5261   27.2435 C   0  0  0  0  0  0  0  0  0  0  0  0
   -3.8647   -4.8406   26.6607 C   0  0  0  0  0  0  0  0  0  0  0  0
   -3.7745   -5.8181   27.5741 C   0  0  0  0  0  0  0  0  0  0  0  0
   -3.5846   -5.6095   28.8804 C   0  0  0  0  0  0  0  0  0  0  0  0
   -3.4823   -4.3187   29.3043 C   0  0  0  0  0  0  0  0  0  0  0  0
   -3.0089   -4.0568   30.5579 N   0  0  0  0  0  0  0  0  0  0  0  0
  3  7  1  0
  7  8  1  0
  8  9  1  0
  9 10  2  3
  9 11  1  0
 10 12  1  0
  7 23  2  0
 14 24  1  0
 24 25  1  0
 24 31  1  0
 24 32  1  0
 30 38  1  0
 37 38  1  0
 12 13  2  0
 13 14  1  0
 14 15  2  0
 15 16  1  0
 16 17  2  0
 17 12  1  0
 25 26  2  0
 26 27  1  0
 27 28  2  0
 28 29  1  0
 29 30  2  0
 30 25  1  0
 11 18  2  0
 18 19  1  0
 19 20  2  0
 20 21  1  0
 21 22  2  0
 22 11  1  0
 31 33  2  0
 33 34  1  0
 34 35  2  0
 35 36  1  0
 36 37  2  0
 37 31  1  0
  1  2  2  0
  2  5  1  0
  5  6  2  0
  6  4  1  0
  4  3  2  0
  3  1  1  0
M  END
$$$$
