No_2498-complexes_sdf/6BKW-FPZ/2024-09-17-14-21-01/
     RDKit          3D

 13 14  0  0  0  0  0  0  0  0999 V2000
   -7.7129    4.2099   27.0854 C   0  0  0  0  0  0  0  0  0  0  0  0
   -8.2112    3.0637   26.9225 C   0  0  0  0  0  0  0  0  0  0  0  0
   -7.5138    1.9223   27.4249 C   0  0  0  0  0  0  0  0  0  0  0  0
   -8.5309    5.4147   26.8151 C   0  0  0  0  0  0  0  0  0  0  0  0
   -9.6817    5.2393   26.1100 C   0  0  0  0  0  0  0  0  0  0  0  0
  -10.0330    4.0374   25.8588 C   0  0  0  0  0  0  0  0  0  0  0  0
   -9.3809    2.8561   26.2389 C   0  0  0  0  0  0  0  0  0  0  0  0
   -7.9679    0.5676   27.2656 C   0  0  0  0  0  0  0  0  0  0  0  0
   -9.2633    0.5117   26.6150 C   0  0  0  0  0  0  0  0  0  0  0  0
   -9.9410    1.5816   26.0872 C   0  0  0  0  0  0  0  0  0  0  0  0
   -7.9557    6.7800   27.0982 C   0  0  0  0  0  0  0  0  0  0  0  0
   -8.1402    7.8422   26.7858 N   0  0  0  0  0  0  0  0  0  0  0  0
   -6.9543    6.6212   28.0860 O   0  0  0  0  0  0  0  0  0  0  0  0
  4 11  1  0
 11 12  1  0
 11 13  2  0
  1  2  2  0
  7  6  2  0
  6  5  1  0
  5  4  2  0
  4  1  1  0
  2  3  1  0
  3  8  2  0
  8  9  1  0
  9 10  2  0
 10  7  1  0
  7  2  1  0
M  END
$$$$
