No_2409-complexes_sdf/6BKW-FPZ/2024-09-17-14-21-01/
     RDKit          3D

 21 23  0  0  0  0  0  0  0  0999 V2000
   -7.2496    3.8871   27.4508 C   0  0  0  0  0  0  0  0  0  0  0  0
   -7.6161    2.7143   27.1523 C   0  0  0  0  0  0  0  0  0  0  0  0
   -8.6212    2.2239   26.4073 C   0  0  0  0  0  0  0  0  0  0  0  0
   -8.2540    4.9237   27.1711 C   0  0  0  0  0  0  0  0  0  0  0  0
   -9.3729    4.5806   26.4432 C   0  0  0  0  0  0  0  0  0  0  0  0
   -8.9159    0.9340   26.0822 C   0  0  0  0  0  0  0  0  0  0  0  0
   -9.6005    3.2666   26.0851 C   0  0  0  0  0  0  0  0  0  0  0  0
   -7.8520    6.5649   27.5898 Cl  0  0  0  0  0  0  0  0  0  0  0  0
   -9.1948    0.5629   24.9312 C   0  0  0  0  0  0  0  0  0  0  0  0
   -9.3109    1.6131   23.8996 C   0  0  0  0  0  0  0  0  0  0  0  0
   -9.7112    1.3025   22.5651 C   0  0  0  0  0  0  0  0  0  0  0  0
   -9.6995   -0.0479   22.1920 C   0  0  0  0  0  0  0  0  0  0  0  0
   -9.4771   -0.8611   23.0019 C   0  0  0  0  0  0  0  0  0  0  0  0
   -9.1932   -0.6997   24.3113 C   0  0  0  0  0  0  0  0  0  0  0  0
   -8.8376   -0.0534   27.1689 C   0  0  0  0  0  0  0  0  0  0  0  0
   -9.0634    0.0563   28.2089 C   0  0  0  0  0  0  0  0  0  0  0  0
   -9.1823   -1.0949   29.1753 C   0  0  0  0  0  0  0  0  0  0  0  0
   -8.8196   -2.3376   28.6514 C   0  0  0  0  0  0  0  0  0  0  0  0
   -8.6497   -1.5902   26.9236 C   0  0  0  0  0  0  0  0  0  0  0  0
   -8.5297   -2.8330   27.6638 C   0  0  0  0  0  0  0  0  0  0  0  0
   -8.2755   -3.9920   27.0780 C   0  0  0  0  0  0  0  0  0  0  0  0
  3  6  1  0
  4  8  1  0
  6 15  1  0
 15 16  2  0
 16 17  1  0
 17 18  2  0
 15 19  1  0
 18 19  1  0
 18 20  1  0
 20 21  1  0
  6  9  1  0
  1  2  2  0
  2  3  1  0
  3  7  2  0
  7  5  1  0
  5  4  2  0
  4  1  1  0
  9 10  2  0
 10 11  1  0
 11 12  2  0
 12 13  1  0
 13 14  2  0
 14  9  1  0
M  END
$$$$
