No_2951-complexes_sdf/6BKW-FPZ/2024-09-17-14-21-01/
     RDKit          3D

 12 12  0  0  0  0  0  0  0  0999 V2000
   -7.7129    4.2099   27.0854 C   0  0  0  0  0  0  0  0  0  0  0  0
   -8.9133    4.4736   27.0998 C   0  0  0  0  0  0  0  0  0  0  0  0
   -9.4643    5.5426   27.7628 C   0  0  0  0  0  0  0  0  0  0  0  0
   -7.2009    2.9448   26.6134 C   0  0  0  0  0  0  0  0  0  0  0  0
   -8.0533    1.9370   26.8587 C   0  0  0  0  0  0  0  0  0  0  0  0
   -9.4086    2.0889   26.9556 C   0  0  0  0  0  0  0  0  0  0  0  0
   -9.8568    3.3588   26.9690 C   0  0  0  0  0  0  0  0  0  0  0  0
   -7.5008    0.5460   26.5828 C   0  0  0  0  0  0  0  0  0  0  0  0
   -6.7216    0.0788   27.3929 O   0  0  0  0  0  0  0  0  0  0  0  0
   -8.0382   -0.1394   25.6512 O   0  0  0  0  0  0  0  0  0  0  0  0
   -8.4998    6.9334   27.6688 Cl  0  0  0  0  0  0  0  0  0  0  0  0
   -8.0307   -1.3181   25.5686 C   0  0  0  0  0  0  0  0  0  0  0  0
  5  8  1  0
  8  9  2  0
  8 10  1  0
  3 11  1  0
 10 12  1  0
  3  2  1  0
  1  2  2  0
  2  7  1  0
  7  6  2  0
  6  5  1  0
  5  4  2  0
  4  1  1  0
M  END
$$$$
