No_278-complexes_sdf/6BKW-FPZ/2024-09-17-14-21-01/
     RDKit          3D

 24 26  0  0  0  0  0  0  0  0999 V2000
   -7.9040    3.9820   27.1177 C   0  0  0  0  0  0  0  0  0  0  0  0
   -7.8663    4.8694   27.9238 C   0  0  2  0  0  0  0  0  0  0  0  0
   -9.0491    3.8523   26.2542 C   0  0  0  0  0  0  0  0  0  0  0  0
   -9.9827    3.2456   26.6451 C   0  0  1  0  0  0  0  0  0  0  0  0
  -10.7367    3.8670   27.7658 C   0  0  0  0  0  0  0  0  0  0  0  0
   -6.6666    5.5915   28.1646 C   0  0  0  0  0  0  0  0  0  0  0  0
  -10.0912    4.4402   28.8880 C   0  0  0  0  0  0  0  0  0  0  0  0
   -8.9485    5.1816   28.9105 C   0  0  0  0  0  0  0  0  0  0  0  0
  -11.0390    2.8086   25.5026 C   0  0  0  0  0  0  0  0  0  0  0  0
  -11.3494    1.6251   25.3907 C   0  0  0  0  0  0  0  0  0  0  0  0
  -10.9996    0.6717   26.0663 C   0  0  0  0  0  0  0  0  0  0  0  0
  -11.3416   -0.6696   25.9435 C   0  0  0  0  0  0  0  0  0  0  0  0
  -12.0992   -0.9790   24.8594 C   0  0  0  0  0  0  0  0  0  0  0  0
  -12.4861   -0.0590   23.9822 C   0  0  0  0  0  0  0  0  0  0  0  0
  -12.1218    1.2684   24.1484 C   0  0  0  0  0  0  0  0  0  0  0  0
  -11.4549    3.9696   24.6968 C   0  0  0  0  0  0  0  0  0  0  0  0
  -12.2027    3.8556   27.8347 C   0  0  0  0  0  0  0  0  0  0  0  0
  -12.8397    3.1820   28.8905 C   0  0  0  0  0  0  0  0  0  0  0  0
  -14.1620    3.1741   29.0825 C   0  0  0  0  0  0  0  0  0  0  0  0
  -14.6991    2.3985   30.0968 C   0  0  0  0  0  0  0  0  0  0  0  0
  -13.8910    1.5881   30.8745 C   0  0  0  0  0  0  0  0  0  0  0  0
  -13.0831    1.1543   30.4711 C   0  0  0  0  0  0  0  0  0  0  0  0
  -12.1463    1.9700   29.4782 C   0  0  0  0  0  0  0  0  0  0  0  0
  -12.7895    4.9186   27.4454 O   0  0  0  0  0  0  0  0  0  0  0  0
  1  2  1  0
  1  3  1  0
  3  4  1  0
  4  5  1  0
  2  6  1  1
  5  7  2  0
  2  8  1  0
  7  8  1  0
  4  9  1  6
  9 10  1  0
  9 16  1  0
  5 17  1  0
 17 18  1  0
 17 24  2  0
 18 19  2  0
 19 20  1  0
 20 21  2  0
 21 22  1  0
 22 23  2  0
 23 18  1  0
 10 11  2  0
 11 12  1  0
 12 13  2  0
 13 14  1  0
 14 15  2  0
 15 10  1  0
M  END
$$$$
