No_210-complexes_sdf/6BKW-FPZ/2024-09-17-14-21-01/
     RDKit          3D

 38 43  0  0  0  0  0  0  0  0999 V2000
   -7.2496    3.8871   27.4508 C   0  0  0  0  0  0  0  0  0  0  0  0
   -8.5096    4.0291   27.2770 C   0  0  2  0  0  0  0  0  0  0  0  0
   -9.3451    2.8786   26.9046 C   0  0  2  0  0  0  0  0  0  0  0  0
  -10.6709    3.0505   26.6789 C   0  0  0  0  0  0  0  0  0  0  0  0
   -6.7203    2.6777   27.6826 N   0  0  0  0  0  0  0  0  0  0  0  0
   -7.3874    1.5643   27.3255 C   0  0  2  0  0  0  0  0  0  0  0  0
   -8.7089    1.7017   27.0471 C   0  0  2  0  0  0  0  0  0  0  0  0
   -8.9063    5.5115   27.1413 C   0  0  0  0  0  0  0  0  0  0  0  0
  -11.0637    3.1863   25.3375 C   0  0  0  0  0  0  0  0  0  0  0  0
  -12.3085    3.3707   24.8945 C   0  0  0  0  0  0  0  0  0  0  0  0
   -8.1063    6.5869   27.4624 C   0  0  0  0  0  0  0  0  0  0  0  0
  -13.3295    3.3340   25.9392 C   0  0  0  0  0  0  0  0  0  0  0  0
  -13.0037    3.2507   27.2693 C   0  0  0  0  0  0  0  0  0  0  0  0
  -11.6812    3.0870   27.7053 C   0  0  0  0  0  0  0  0  0  0  0  0
   -6.7682    0.3811   27.4369 N   0  0  0  0  0  0  0  0  0  0  0  0
   -7.2563   -0.8220   27.1505 C   0  0  0  0  0  0  0  0  0  0  0  0
   -5.2971    0.3499   27.6675 C   0  0  0  0  0  0  0  0  0  0  0  0
   -4.7738    0.3119   28.6895 C   0  0  0  0  0  0  0  0  0  0  0  0
   -3.3194    0.3914   28.9208 C   0  0  0  0  0  0  0  0  0  0  0  0
   -2.5320    0.4194   27.7642 C   0  0  0  0  0  0  0  0  0  0  0  0
   -3.1126    0.5660   26.5425 C   0  0  0  0  0  0  0  0  0  0  0  0
   -4.5145    0.4715   26.4421 C   0  0  0  0  0  0  0  0  0  0  0  0
   -6.7150   -2.0398   27.5604 C   0  0  0  0  0  0  0  0  0  0  0  0
   -7.3905   -3.2218   27.3169 C   0  0  0  0  0  0  0  0  0  0  0  0
   -8.6059   -3.1595   26.6570 C   0  0  0  0  0  0  0  0  0  0  0  0
   -9.1644   -1.9780   26.2517 C   0  0  0  0  0  0  0  0  0  0  0  0
   -8.4765   -0.8256   26.5102 C   0  0  0  0  0  0  0  0  0  0  0  0
   -9.3828    0.4584   26.6034 C   0  0  0  0  0  0  0  0  0  0  0  0
   -8.3786    7.8267   26.7129 C   0  0  0  0  0  0  0  0  0  0  0  0
  -11.3456    2.9493   29.1055 C   0  0  0  0  0  0  0  0  0  0  0  0
  -10.0216    3.1986   24.2475 C   0  0  0  0  0  0  0  0  0  0  0  0
  -10.4548    2.6329   22.9936 C   0  0  0  0  0  0  0  0  0  0  0  0
  -10.2297    1.4130   22.6867 C   0  0  0  0  0  0  0  0  0  0  0  0
   -9.4556    0.5135   23.5684 C   0  0  0  0  0  0  0  0  0  0  0  0
   -8.9922   -0.7729   23.1453 C   0  0  0  0  0  0  0  0  0  0  0  0
   -9.4078   -1.1812   21.9249 C   0  0  0  0  0  0  0  0  0  0  0  0
  -10.1365   -0.3861   21.0046 C   0  0  0  0  0  0  0  0  0  0  0  0
  -10.4531    0.8834   21.3874 C   0  0  0  0  0  0  0  0  0  0  0  0
  2  1  1  6
  2  3  1  0
  1  5  1  0
  6  5  1  1
  3  7  1  0
  6  7  1  0
  2  8  1  0
  8 11  2  3
  6 15  1  0
 15 16  1  0
 15 17  1  0
  7 28  1  6
 27 28  1  0
 11 29  1  0
 14 30  1  0
  9 31  1  0
 31 32  1  0
 32 33  1  0
  3  4  1  1
  4  9  1  0
  9 10  2  0
 10 12  1  0
 12 13  2  0
 13 14  1  0
 14  4  2  0
 33 34  2  0
 34 35  1  0
 35 36  2  0
 36 37  1  0
 37 38  2  0
 38 33  1  0
 17 18  2  0
 18 19  1  0
 19 20  2  0
 20 21  1  0
 21 22  2  0
 22 17  1  0
 16 23  2  0
 23 24  1  0
 24 25  2  0
 25 26  1  0
 26 27  2  0
 27 16  1  0
M  END
$$$$
