No_2946-complexes_sdf/6BKW-FPZ/2024-09-17-14-21-01/
     RDKit          3D

 23 24  0  0  0  0  0  0  0  0999 V2000
   -7.7129    4.2099   27.0854 C   0  0  0  0  0  0  0  0  0  0  0  0
   -8.2112    3.0637   26.9225 C   0  0  0  0  0  0  0  0  0  0  0  0
   -8.5108    5.3904   26.9436 C   0  0  0  0  0  0  0  0  0  0  0  0
   -9.7256    5.1955   26.3518 C   0  0  0  0  0  0  0  0  0  0  0  0
   -9.4995    2.8258   26.4878 C   0  0  0  0  0  0  0  0  0  0  0  0
  -10.2542    3.9691   26.2055 C   0  0  0  0  0  0  0  0  0  0  0  0
   -7.9471    6.5632   27.1671 F   0  0  0  0  0  0  0  0  0  0  0  0
   -7.3585    1.8210   27.2484 C   0  0  0  0  0  0  0  0  0  0  0  0
   -6.9309    1.0530   26.5980 C   0  0  0  0  0  0  0  0  0  0  0  0
   -6.1192   -0.0669   27.1152 C   0  0  0  0  0  0  0  0  0  0  0  0
   -6.2774   -1.3500   26.8157 C   0  0  0  0  0  0  0  0  0  0  0  0
   -5.4947   -2.3452   27.3801 C   0  0  0  0  0  0  0  0  0  0  0  0
   -4.4949   -2.0063   28.3149 C   0  0  0  0  0  0  0  0  0  0  0  0
   -4.3501   -0.6750   28.7352 C   0  0  0  0  0  0  0  0  0  0  0  0
   -5.1914    0.3147   28.1497 C   0  0  0  0  0  0  0  0  0  0  0  0
   -3.4194   -0.2560   29.7887 C   0  0  0  0  0  0  0  0  0  0  0  0
   -1.9653   -0.7679   29.7314 Cl  0  0  0  0  0  0  0  0  0  0  0  0
   -3.8420    0.4753   30.8277 O   0  0  0  0  0  0  0  0  0  0  0  0
  -11.6107    3.8081   25.6399 C   0  0  0  0  0  0  0  0  0  0  0  0
  -11.8634    3.7168   24.2890 C   0  0  0  0  0  0  0  0  0  0  0  0
  -10.8387    3.6377   23.3860 C   0  0  0  0  0  0  0  0  0  0  0  0
  -11.0870    3.6034   21.9630 C   0  0  0  0  0  0  0  0  0  0  0  0
  -10.0110    3.5400   21.0234 C   0  0  0  0  0  0  0  0  0  0  0  0
  3  7  1  0
  2  8  1  0
  8  9  2  3
  9 10  1  0
 14 16  1  0
 16 17  1  0
 16 18  2  0
  6 19  1  0
 19 20  1  0
 20 21  2  3
 21 22  1  0
 22 23  2  0
  1  2  2  0
  2  5  1  0
  5  6  2  0
  6  4  1  0
  4  3  2  0
  3  1  1  0
 10 11  2  0
 11 12  1  0
 12 13  2  0
 13 14  1  0
 14 15  2  0
 15 10  1  0
M  END
$$$$
