No_2919-complexes_sdf/6BKW-FPZ/2024-09-17-14-21-01/
     RDKit          3D

 27 29  0  0  0  0  0  0  0  0999 V2000
   -7.9040    3.9820   27.1177 C   0  0  0  0  0  0  0  0  0  0  0  0
   -9.0711    4.3164   27.0630 C   0  0  0  0  0  0  0  0  0  0  0  0
   -9.8698    3.9665   25.9494 C   0  0  0  0  0  0  0  0  0  0  0  0
   -7.4046    2.7946   26.4568 C   0  0  0  0  0  0  0  0  0  0  0  0
   -8.3645    2.1023   25.7152 C   0  0  0  0  0  0  0  0  0  0  0  0
  -11.1228    4.5682   25.6959 C   0  0  0  0  0  0  0  0  0  0  0  0
   -9.5647    2.7410   25.3284 C   0  0  0  0  0  0  0  0  0  0  0  0
   -7.0053    4.5121   28.0854 O   0  0  0  0  0  0  0  0  0  0  0  0
   -7.4403    5.6887   28.5636 C   0  0  0  0  0  0  0  0  0  0  0  0
  -10.3938    2.1709   24.3443 C   0  0  0  0  0  0  0  0  0  0  0  0
  -10.1941    1.9586   23.3241 C   0  0  0  0  0  0  0  0  0  0  0  0
  -10.7659    1.5256   22.1340 C   0  0  0  0  0  0  0  0  0  0  0  0
  -10.1951    1.1790   20.9144 C   0  0  0  0  0  0  0  0  0  0  0  0
  -10.9236    0.6413   19.9243 C   0  0  0  0  0  0  0  0  0  0  0  0
  -12.2922    0.4747   20.0141 C   0  0  0  0  0  0  0  0  0  0  0  0
  -12.9083    0.8095   21.1571 C   0  0  0  0  0  0  0  0  0  0  0  0
  -12.2008    1.3007   22.2412 C   0  0  0  0  0  0  0  0  0  0  0  0
  -11.8195    1.8887   24.8238 C   0  0  1  0  0  0  0  0  0  0  0  0
  -12.2592    3.3101   25.3191 C   0  0  2  0  0  0  0  0  0  0  0  0
  -13.6397    3.6719   25.4464 C   0  0  0  0  0  0  0  0  0  0  0  0
  -14.3100    2.7610   25.3568 F   0  0  0  0  0  0  0  0  0  0  0  0
  -13.7293    4.2687   26.6531 F   0  0  0  0  0  0  0  0  0  0  0  0
  -13.8331    4.6068   24.4979 F   0  0  0  0  0  0  0  0  0  0  0  0
  -12.1423    2.8651   26.2676 C   0  0  0  0  0  0  0  0  0  0  0  0
  -12.4749    0.9124   24.7996 C   0  0  0  0  0  0  0  0  0  0  0  0
  -12.9401    1.9630   27.0969 C   0  0  0  0  0  0  0  0  0  0  0  0
  -11.5138    3.0500   27.2067 F   0  0  0  0  0  0  0  0  0  0  0  0
  3  6  1  0
  1  8  1  0
  8  9  1  0
  7 10  1  0
 10 11  2  3
 11 12  1  0
 10 18  1  0
  6 19  1  0
 18 19  1  0
 19 20  1  6
 20 21  1  0
 20 22  1  0
 20 23  1  0
 19 24  1  0
 18 25  1  6
 24 26  2  0
 24 27  1  0
 12 13  2  0
 13 14  1  0
 14 15  2  0
 15 16  1  0
 16 17  2  0
 17 12  1  0
  1  2  2  0
  2  3  1  0
  3  7  2  0
  7  5  1  0
  5  4  2  0
  4  1  1  0
M  END
$$$$
