No_277-complexes_sdf/6BKW-FPZ/2024-09-17-14-21-01/
     RDKit          3D

 21 22  0  0  0  0  0  0  0  0999 V2000
   -7.7129    4.2099   27.0854 C   0  0  0  0  0  0  0  0  0  0  0  0
   -7.7814    5.1722   27.8972 C   0  0  0  0  0  0  0  0  0  0  0  0
   -7.2983    2.9533   27.5684 C   0  0  0  0  0  0  0  0  0  0  0  0
   -7.6908    1.8111   26.9553 C   0  0  0  0  0  0  0  0  0  0  0  0
   -8.6533    1.9165   25.9430 C   0  0  0  0  0  0  0  0  0  0  0  0
   -9.2376    3.0581   25.6387 C   0  0  2  0  0  0  0  0  0  0  0  0
   -9.1150    4.1373   26.4821 C   0  0  2  0  0  0  0  0  0  0  0  0
  -10.3629    3.0933   24.6731 C   0  0  0  0  0  0  0  0  0  0  0  0
  -11.2435    2.5646   24.6541 C   0  0  0  0  0  0  0  0  0  0  0  0
  -11.5425    1.6650   25.8109 C   0  0  1  0  0  0  0  0  0  0  0  0
  -11.2686    1.8203   26.8992 C   0  0  0  0  0  0  0  0  0  0  0  0
  -11.8271    2.9234   27.7341 C   0  0  0  0  0  0  0  0  0  0  0  0
  -12.7323    2.7094   28.5543 C   0  0  0  0  0  0  0  0  0  0  0  0
  -13.2893    3.8343   29.3829 C   0  0  0  0  0  0  0  0  0  0  0  0
   -9.6742    5.3941   26.2719 C   0  0  0  0  0  0  0  0  0  0  0  0
  -14.2379    3.5677   30.3608 C   0  0  0  0  0  0  0  0  0  0  0  0
  -14.5844    2.2971   30.6712 C   0  0  0  0  0  0  0  0  0  0  0  0
  -14.0728    1.2654   29.9287 C   0  0  0  0  0  0  0  0  0  0  0  0
  -13.1307    1.4241   28.9820 C   0  0  0  0  0  0  0  0  0  0  0  0
  -12.4880    0.5200   25.4110 C   0  0  0  0  0  0  0  0  0  0  0  0
  -13.4739    0.6355   24.7841 N   0  0  0  0  0  0  0  0  0  0  0  0
  1  2  2  0
  1  3  1  0
  3  4  1  0
  4  5  1  0
  6  5  1  1
  1  7  1  0
  6  7  1  0
  6  8  1  0
  8  9  2  3
  9 10  1  0
 10 11  1  1
 11 12  1  0
  7 15  1  6
 10 20  1  0
 20 21  2  0
 12 13  1  0
 13 14  2  0
 14 16  1  0
 16 17  2  0
 17 18  1  0
 18 19  2  0
 19 13  1  0
M  END
$$$$
