No_2670-complexes_sdf/6BKW-FPZ/2024-09-17-14-21-01/
     RDKit          3D

 26 28  0  0  0  0  0  0  0  0999 V2000
   -7.7129    4.2099   27.0854 C   0  0  0  0  0  0  0  0  0  0  0  0
   -7.7814    5.1722   27.8972 C   0  0  0  0  0  0  0  0  0  0  0  0
   -8.8255    3.2789   27.1191 C   0  0  0  0  0  0  0  0  0  0  0  0
   -9.9209    3.4734   27.9101 C   0  0  0  0  0  0  0  0  0  0  0  0
  -10.0316    4.7089   28.6463 C   0  0  0  0  0  0  0  0  0  0  0  0
   -8.9258    5.5669   28.6427 C   0  0  0  0  0  0  0  0  0  0  0  0
   -8.6970    1.9978   26.3619 C   0  0  0  0  0  0  0  0  0  0  0  0
   -7.8789    0.9627   26.7437 C   0  0  0  0  0  0  0  0  0  0  0  0
   -7.7679   -0.1982   26.1053 C   0  0  0  0  0  0  0  0  0  0  0  0
   -9.4373    1.8610   25.2035 C   0  0  0  0  0  0  0  0  0  0  0  0
   -9.3397    0.7333   24.4061 C   0  0  0  0  0  0  0  0  0  0  0  0
   -8.4848   -0.2828   24.8771 C   0  0  0  0  0  0  0  0  0  0  0  0
  -11.0501    2.5646   27.9568 C   0  0  0  0  0  0  0  0  0  0  0  0
  -12.2803    2.8311   27.3738 C   0  0  0  0  0  0  0  0  0  0  0  0
  -13.2224    2.7867   28.1824 C   0  0  0  0  0  0  0  0  0  0  0  0
  -14.4855    3.4388   27.9702 C   0  0  0  0  0  0  0  0  0  0  0  0
  -14.6375    3.9913   26.6509 C   0  0  0  0  0  0  0  0  0  0  0  0
  -13.5171    4.0797   25.7945 C   0  0  0  0  0  0  0  0  0  0  0  0
  -12.3105    3.5832   26.2194 C   0  0  0  0  0  0  0  0  0  0  0  0
  -10.7842    1.3800   28.4417 O   0  0  0  0  0  0  0  0  0  0  0  0
  -10.0394    0.6036   23.1697 C   0  0  0  0  0  0  0  0  0  0  0  0
  -10.1636    1.6991   22.4634 C   0  0  0  0  0  0  0  0  0  0  0  0
   -9.7286    2.9967   22.8884 C   0  0  0  0  0  0  0  0  0  0  0  0
   -9.5525    3.0930   24.3854 C   0  0  0  0  0  0  0  0  0  0  0  0
   -9.3996    4.3373   24.8229 O   0  0  0  0  0  0  0  0  0  0  0  0
  -10.5843    3.0045   24.7995 F   0  0  0  0  0  0  0  0  0  0  0  0
  3  7  1  0
  4 13  1  0
 13 14  1  0
 13 20  2  0
 11 21  1  0
 21 22  2  3
 22 23  1  0
 23 24  2  3
 24 25  1  0
 24 26  1  0
 14 15  2  0
 15 16  1  0
 16 17  2  0
 17 18  1  0
 18 19  2  0
 19 14  1  0
  1  2  2  0
  2  6  1  0
  6  5  2  0
  5  4  1  0
  4  3  2  0
  3  1  1  0
  7  8  2  0
  8  9  1  0
  9 12  2  0
 12 11  1  0
 11 10  2  0
 10  7  1  0
M  END
$$$$
