No_2971-complexes_sdf/6BKW-FPZ/2024-09-17-14-21-01/
     RDKit          3D

 30 34  0  0  0  0  0  0  0  0999 V2000
   -7.9040    3.9820   27.1177 C   0  0  0  0  0  0  0  0  0  0  0  0
   -8.2057    2.8231   26.8733 C   0  0  0  0  0  0  0  0  0  0  0  0
   -7.0130    4.3706   28.1140 C   0  0  0  0  0  0  0  0  0  0  0  0
   -9.3829    2.4374   26.1668 C   0  0  0  0  0  0  0  0  0  0  0  0
  -10.0975    3.4171   25.5988 C   0  0  0  0  0  0  0  0  0  0  0  0
   -9.7335    4.7745   25.7705 C   0  0  0  0  0  0  0  0  0  0  0  0
   -8.7317    5.1107   26.5933 C   0  0  0  0  0  0  0  0  0  0  0  0
   -8.3983    6.4679   26.8933 C   0  0  0  0  0  0  0  0  0  0  0  0
   -7.3346    6.7850   27.7126 C   0  0  0  0  0  0  0  0  0  0  0  0
   -6.7763    5.7820   28.3880 C   0  0  0  0  0  0  0  0  0  0  0  0
   -7.5917    1.5723   27.4446 C   0  0  0  0  0  0  0  0  0  0  0  0
   -6.1617    1.5807   27.5592 C   0  0  0  0  0  0  0  0  0  0  0  0
   -5.4663    0.4913   28.1089 C   0  0  0  0  0  0  0  0  0  0  0  0
   -4.0909    0.6339   28.4503 C   0  0  0  0  0  0  0  0  0  0  0  0
   -3.5044   -0.4332   29.1166 C   0  0  0  0  0  0  0  0  0  0  0  0
   -4.1839   -1.5365   29.4815 C   0  0  0  0  0  0  0  0  0  0  0  0
   -5.5178   -1.6343   29.1603 C   0  0  0  0  0  0  0  0  0  0  0  0
   -6.1716   -0.6150   28.5297 C   0  0  0  0  0  0  0  0  0  0  0  0
   -9.6926    1.0602   25.8164 C   0  0  0  0  0  0  0  0  0  0  0  0
   -8.9258    0.3392   25.0256 C   0  0  0  0  0  0  0  0  0  0  0  0
   -8.9627   -0.9635   24.8756 C   0  0  0  0  0  0  0  0  0  0  0  0
   -9.9155   -1.6573   25.6110 C   0  0  0  0  0  0  0  0  0  0  0  0
  -10.5816    0.3361   26.6529 C   0  0  0  0  0  0  0  0  0  0  0  0
  -10.7336   -1.0342   26.5722 C   0  0  0  0  0  0  0  0  0  0  0  0
  -11.2486    3.1365   24.6859 C   0  0  0  0  0  0  0  0  0  0  0  0
  -12.4537    3.0479   25.1178 C   0  0  0  0  0  0  0  0  0  0  0  0
  -10.9573    2.9254   23.3125 C   0  0  0  0  0  0  0  0  0  0  0  0
  -11.8840    2.6048   22.4343 C   0  0  0  0  0  0  0  0  0  0  0  0
  -13.5348    2.7655   24.2479 C   0  0  0  0  0  0  0  0  0  0  0  0
  -13.2132    2.5236   22.8764 C   0  0  0  0  0  0  0  0  0  0  0  0
  2 11  1  0
 11 12  1  0
  4 19  1  0
  5 25  1  0
 12 13  1  0
  1  3  2  0
  3 10  1  0
 10  9  2  0
  9  8  1  0
  8  7  2  0
 19 20  2  0
 20 21  1  0
 21 22  2  0
 22 24  1  0
 24 23  2  0
 23 19  1  0
  1  2  1  0
  2  4  2  0
  4  5  1  0
  5  6  2  0
  6  7  1  0
  7  1  1  0
 13 14  2  0
 14 15  1  0
 15 16  2  0
 16 17  1  0
 17 18  2  0
 18 13  1  0
 25 26  2  0
 26 29  1  0
 29 30  2  0
 30 28  1  0
 28 27  2  0
 27 25  1  0
M  END
$$$$
