No_2374-complexes_sdf/6BKW-FPZ/2024-09-17-14-21-01/
     RDKit          3D

 18 19  0  0  0  0  0  0  0  0999 V2000
   -7.7129    4.2099   27.0854 C   0  0  0  0  0  0  0  0  0  0  0  0
   -8.9133    4.4736   27.0998 C   0  0  0  0  0  0  0  0  0  0  0  0
   -9.7937    3.7368   26.2091 C   0  0  0  0  0  0  0  0  0  0  0  0
   -7.4126    2.9835   27.2940 C   0  0  0  0  0  0  0  0  0  0  0  0
   -8.2271    1.9809   26.6470 C   0  0  0  0  0  0  0  0  0  0  0  0
   -7.8552    0.6266   26.5545 C   0  0  0  0  0  0  0  0  0  0  0  0
   -9.4462    2.4307   26.1546 C   0  0  0  0  0  0  0  0  0  0  0  0
   -6.9414    0.0650   27.3247 N   0  0  0  0  0  0  0  0  0  0  0  0
   -6.6310   -1.2349   27.3344 C   0  0  0  0  0  0  0  0  0  0  0  0
   -9.3028    6.0517   27.0442 C   0  0  0  0  0  0  0  0  0  0  0  0
   -8.4056   -0.0585   25.6566 O   0  0  0  0  0  0  0  0  0  0  0  0
   -8.9553    7.1167   27.2932 N   0  0  0  0  0  0  0  0  0  0  0  0
   -5.5218   -1.6303   27.1502 C   0  0  0  0  0  0  0  0  0  0  0  0
   -4.4236   -0.6496   26.9950 C   0  0  0  0  0  0  0  0  0  0  0  0
   -4.6356    0.6383   27.4914 C   0  0  1  0  0  0  0  0  0  0  0  0
   -6.1036    0.8403   28.2644 C   0  0  0  0  0  0  0  0  0  0  0  0
   -3.7876    1.5993   27.7305 O   0  0  0  0  0  0  0  0  0  0  0  0
  -10.8419    4.5024   25.7602 C   0  0  0  0  0  0  0  0  0  0  0  0
  5  6  1  0
  6  8  1  0
  8  9  1  0
  2 10  1  0
  6 11  2  0
 10 12  3  0
 13 14  1  0
  8 16  1  0
 15 16  1  0
 15 17  1  1
  3 18  1  0
  9 13  1  0
 14 15  1  0
  1  2  2  0
  2  3  1  0
  3  7  2  0
  7  5  1  0
  5  4  2  0
  4  1  1  0
M  END
$$$$
