No_2236-complexes_sdf/6BKW-FPZ/2024-09-17-14-21-01/
     RDKit          3D

 17 17  0  0  0  0  0  0  0  0999 V2000
   -7.7129    4.2099   27.0854 C   0  0  0  0  0  0  0  0  0  0  0  0
   -8.9133    4.4736   27.0998 C   0  0  0  0  0  0  0  0  0  0  0  0
   -9.7135    3.9633   26.0300 C   0  0  0  0  0  0  0  0  0  0  0  0
   -7.1708    2.9509   26.6517 C   0  0  0  0  0  0  0  0  0  0  0  0
   -8.1422    2.1350   26.0104 C   0  0  0  0  0  0  0  0  0  0  0  0
   -9.3363    2.7131   25.6563 C   0  0  0  0  0  0  0  0  0  0  0  0
   -9.2657    5.9651   27.4012 C   0  0  0  0  0  0  0  0  0  0  0  0
   -7.7451    0.7860   25.6444 C   0  0  0  0  0  0  0  0  0  0  0  0
   -6.9894    0.0976   26.4612 N   0  0  0  0  0  0  0  0  0  0  0  0
   -7.3158   -0.8946   27.0900 C   0  0  0  0  0  0  0  0  0  0  0  0
   -8.4311   -1.3531   27.0537 O   0  0  0  0  0  0  0  0  0  0  0  0
   -6.3641   -1.4936   28.2035 C   0  0  2  0  0  0  0  0  0  0  0  0
   -6.8596   -2.3337   29.0787 C   0  0  0  0  0  0  0  0  0  0  0  0
   -5.0587   -0.9858   28.1704 C   0  0  0  0  0  0  0  0  0  0  0  0
   -4.5451   -0.0498   27.4757 C   0  0  0  0  0  0  0  0  0  0  0  0
   -3.1740    0.4534   27.6421 C   0  0  0  0  0  0  0  0  0  0  0  0
   -2.4629   -0.0875   28.7141 C   0  0  0  0  0  0  0  0  0  0  0  0
  2  7  1  0
  5  8  1  0
  8  9  1  0
  9 10  1  0
 10 11  2  0
 10 12  1  0
 12 13  1  1
 12 14  1  0
 14 15  1  0
 15 16  2  3
 16 17  1  0
  1  2  2  0
  2  3  1  0
  3  6  2  0
  6  5  1  0
  5  4  2  0
  4  1  1  0
M  END
$$$$
