No_2848-complexes_sdf/6BKW-FPZ/2024-09-17-14-21-01/
     RDKit          3D

 30 33  0  0  0  0  0  0  0  0999 V2000
   -7.7129    4.2099   27.0854 C   0  0  0  0  0  0  0  0  0  0  0  0
   -8.2112    3.0637   26.9225 C   0  0  0  0  0  0  0  0  0  0  0  0
   -9.4446    2.8304   26.1868 C   0  0  0  0  0  0  0  0  0  0  0  0
   -8.4697    5.3956   26.7238 C   0  0  0  0  0  0  0  0  0  0  0  0
   -9.6172    5.2111   25.9513 C   0  0  0  0  0  0  0  0  0  0  0  0
  -10.0424    3.9782   25.6873 C   0  0  0  0  0  0  0  0  0  0  0  0
   -7.9321    6.5759   26.9449 F   0  0  0  0  0  0  0  0  0  0  0  0
   -9.8969    1.4744   25.9401 C   0  0  0  0  0  0  0  0  0  0  0  0
   -9.5407    0.6962   25.0471 C   0  0  0  0  0  0  0  0  0  0  0  0
   -9.9869   -0.6420   24.8476 C   0  0  0  0  0  0  0  0  0  0  0  0
  -10.6248   -0.9983   25.5353 C   0  0  0  0  0  0  0  0  0  0  0  0
  -10.7274    0.6082   26.8241 C   0  0  0  0  0  0  0  0  0  0  0  0
  -11.1272   -0.5466   26.7567 C   0  0  0  0  0  0  0  0  0  0  0  0
  -11.1348    1.5440   28.1631 C   0  0  0  0  0  0  0  0  0  0  0  0
  -12.2996    2.3426   28.0229 C   0  0  0  0  0  0  0  0  0  0  0  0
  -12.6097    3.1569   29.1104 C   0  0  0  0  0  0  0  0  0  0  0  0
  -13.1610    2.1075   26.9747 C   0  0  0  0  0  0  0  0  0  0  0  0
  -13.6515    4.1451   29.0655 C   0  0  0  0  0  0  0  0  0  0  0  0
  -14.2924    3.0625   26.9335 C   0  0  0  0  0  0  0  0  0  0  0  0
  -14.5214    4.0358   27.9489 C   0  0  0  0  0  0  0  0  0  0  0  0
  -15.6745    4.9496   27.8518 C   0  0  0  0  0  0  0  0  0  0  0  0
  -16.8447    4.4034   27.8649 C   0  0  0  0  0  0  0  0  0  0  0  0
  -15.3828    6.3536   27.7926 C   0  0  0  0  0  0  0  0  0  0  0  0
  -17.1668    3.3034   28.1596 C   0  0  0  0  0  0  0  0  0  0  0  0
  -18.5059    2.7821   28.1368 C   0  0  0  0  0  0  0  0  0  0  0  0
  -19.4475    3.6652   27.6799 C   0  0  0  0  0  0  0  0  0  0  0  0
  -19.1698    4.9206   27.2899 C   0  0  0  0  0  0  0  0  0  0  0  0
  -17.8749    5.4400   27.3650 C   0  0  0  0  0  0  0  0  0  0  0  0
  -11.9181   -1.1059   27.6142 F   0  0  0  0  0  0  0  0  0  0  0  0
  -14.2191    6.9025   28.5257 C   0  0  0  0  0  0  0  0  0  0  0  0
  4  7  1  0
  3  8  1  0
 12 14  1  0
 20 21  1  0
 21 22  1  0
 21 23  1  0
 13 29  1  0
 23 30  2  0
 14 15  1  0
 22 24  2  0
 24 25  1  0
 25 26  2  0
 26 27  1  0
 27 28  2  0
 28 22  1  0
  1  2  2  0
  2  3  1  0
  3  6  2  0
  6  5  1  0
  5  4  2  0
  4  1  1  0
 15 16  2  0
 16 18  1  0
 18 20  2  0
 20 19  1  0
 19 17  2  0
 17 15  1  0
  8  9  2  0
  9 10  1  0
 10 11  2  0
 11 13  1  0
 13 12  2  0
 12  8  1  0
M  END
$$$$
