No_212-complexes_sdf/6BKW-FPZ/2024-09-17-14-21-01/
     RDKit          3D

 23 26  0  0  0  0  0  0  0  0999 V2000
   -7.9040    3.9820   27.1177 C   0  0  0  0  0  0  0  0  0  0  0  0
   -7.8663    4.8694   27.9238 C   0  0  0  0  0  0  0  0  0  0  0  0
   -9.0501    3.8017   26.2617 C   0  0  0  0  0  0  0  0  0  0  0  0
   -9.1826    2.7026   25.3575 C   0  0  0  0  0  0  0  0  0  0  0  0
   -8.6940    6.0131   27.8614 C   0  0  0  0  0  0  0  0  0  0  0  0
   -9.9755    4.8547   26.2361 C   0  0  0  0  0  0  0  0  0  0  0  0
   -9.7463    5.9398   27.0364 C   0  0  0  0  0  0  0  0  0  0  0  0
   -8.7094    1.4766   25.7702 C   0  0  0  0  0  0  0  0  0  0  0  0
   -9.8701    2.8497   24.1394 C   0  0  0  0  0  0  0  0  0  0  0  0
   -8.0825    1.2578   27.0090 C   0  0  0  0  0  0  0  0  0  0  0  0
   -9.9829    1.7561   23.2854 C   0  0  0  0  0  0  0  0  0  0  0  0
   -9.4486    0.5048   23.6965 C   0  0  0  0  0  0  0  0  0  0  0  0
   -8.8506    0.3773   24.8473 C   0  0  0  0  0  0  0  0  0  0  0  0
   -8.6091    0.1535   27.7708 C   0  0  0  0  0  0  0  0  0  0  0  0
   -9.9750    0.0874   27.8977 C   0  0  0  0  0  0  0  0  0  0  0  0
  -10.8396    1.1770   27.7908 C   0  0  0  0  0  0  0  0  0  0  0  0
  -12.2323    1.0244   28.1258 C   0  0  0  0  0  0  0  0  0  0  0  0
  -12.6560   -0.2313   28.5303 C   0  0  0  0  0  0  0  0  0  0  0  0
  -10.6477   -1.1036   28.4257 C   0  0  0  0  0  0  0  0  0  0  0  0
   -9.7238   -2.2407   28.5405 C   0  0  0  0  0  0  0  0  0  0  0  0
  -11.9360   -1.2293   28.7193 C   0  0  0  0  0  0  0  0  0  0  0  0
   -7.7883   -0.9791   28.0038 C   0  0  0  0  0  0  0  0  0  0  0  0
   -8.3440   -2.1359   28.4393 C   0  0  0  0  0  0  0  0  0  0  0  0
  3  4  1  0
  8 10  1  0
 10 14  1  0
  4  8  2  0
  8 13  1  0
 13 12  2  0
 12 11  1  0
 11  9  2  0
  9  4  1  0
 15 16  2  0
 16 17  1  0
 17 18  2  0
 18 21  1  0
 21 19  2  0
  1  2  2  0
  2  5  1  0
  5  7  2  0
  7  6  1  0
  6  3  2  0
  3  1  1  0
 14 15  1  0
 15 19  1  0
 19 20  1  0
 20 23  2  0
 23 22  1  0
 22 14  2  0
M  END
$$$$
