No_2164-complexes_sdf/6BKW-FPZ/2024-09-17-14-21-01/
     RDKit          3D

 13 13  0  0  0  0  0  0  0  0999 V2000
   -7.9040    3.9820   27.1177 C   0  0  0  0  0  0  0  0  0  0  0  0
   -7.8663    4.8694   27.9238 C   0  0  0  0  0  0  0  0  0  0  0  0
   -9.0806    3.1428   27.1220 C   0  0  0  0  0  0  0  0  0  0  0  0
  -10.1072    3.3606   27.8219 C   0  0  0  0  0  0  0  0  0  0  0  0
   -8.9918    5.4653   28.5483 C   0  0  0  0  0  0  0  0  0  0  0  0
  -10.1493    4.6383   28.6025 C   0  0  0  0  0  0  0  0  0  0  0  0
   -8.9761    1.8223   26.3519 C   0  0  0  0  0  0  0  0  0  0  0  0
   -9.4812    1.9055   25.0562 C   0  0  0  0  0  0  0  0  0  0  0  0
  -10.0022    3.0887   24.5545 C   0  0  0  0  0  0  0  0  0  0  0  0
  -10.4285    3.2296   23.2170 C   0  0  0  0  0  0  0  0  0  0  0  0
  -10.8533    4.5337   22.7283 C   0  0  0  0  0  0  0  0  0  0  0  0
  -10.6367    5.5885   23.6303 C   0  0  0  0  0  0  0  0  0  0  0  0
  -10.0704    5.4691   24.8772 C   0  0  0  0  0  0  0  0  0  0  0  0
  3  7  1  0
  7  8  1  0
  8  9  2  3
  9 10  1  0
 10 11  2  3
 11 12  1  0
 12 13  2  0
  1  2  2  0
  2  5  1  0
  5  6  2  0
  6  4  1  0
  4  3  2  0
  3  1  1  0
M  END
$$$$
