No_2978-complexes_sdf/6BKW-FPZ/2024-09-17-14-21-01/
     RDKit          3D

 20 22  0  0  0  0  0  0  0  0999 V2000
   -7.9040    3.9820   27.1177 C   0  0  0  0  0  0  0  0  0  0  0  0
   -9.0711    4.3164   27.0630 C   0  0  0  0  0  0  0  0  0  0  0  0
  -10.0395    3.8218   27.1938 C   0  0  0  0  0  0  0  0  0  0  0  0
   -7.6424    2.5858   27.3611 C   0  0  0  0  0  0  0  0  0  0  0  0
   -8.7646    1.7754   27.4263 C   0  0  0  0  0  0  0  0  0  0  0  0
   -9.9966    2.3406   27.3957 C   0  0  0  0  0  0  0  0  0  0  0  0
   -6.2978    2.3019   27.3802 N   0  0  0  0  0  0  0  0  0  0  0  0
   -5.8884    1.0260   27.5407 C   0  0  0  0  0  0  0  0  0  0  0  0
   -6.5831   -0.0686   27.5115 C   0  0  0  0  0  0  0  0  0  0  0  0
   -8.3562    0.3627   27.6448 C   0  0  0  0  0  0  0  0  0  0  0  0
   -4.5233    0.8290   27.5702 N   0  0  0  0  0  0  0  0  0  0  0  0
   -9.2082    5.9924   26.8308 C   0  0  0  0  0  0  0  0  0  0  0  0
   -8.5442    6.6589   25.7721 C   0  0  0  0  0  0  0  0  0  0  0  0
   -3.8514   -0.2677   27.2189 C   0  0  0  0  0  0  0  0  0  0  0  0
   -4.5545   -1.4154   27.2600 C   0  0  0  0  0  0  0  0  0  0  0  0
   -6.1256   -1.3105   27.3846 C   0  0  0  0  0  0  0  0  0  0  0  0
  -11.2128    1.4865   27.6766 C   0  0  0  0  0  0  0  0  0  0  0  0
  -12.3552    1.8296   27.0023 C   0  0  0  0  0  0  0  0  0  0  0  0
  -13.3980    1.0557   27.3729 C   0  0  0  0  0  0  0  0  0  0  0  0
  -14.6693    1.2688   26.9381 C   0  0  0  0  0  0  0  0  0  0  0  0
  2 12  1  0
 12 13  1  0
  6 17  1  0
 17 18  1  0
 18 19  1  0
 19 20  2  0
  5 10  2  0
 10  9  1  0
  8  7  1  0
  7  4  2  0
  1  2  2  0
  2  3  1  0
  3  6  2  0
  6  5  1  0
  5  4  1  0
  4  1  1  0
  8  9  2  0
  9 16  1  0
 16 15  2  0
 15 14  1  0
 14 11  2  0
 11  8  1  0
M  END
$$$$
