No_283-complexes_sdf/6BKW-FPZ/2024-09-17-14-21-01/
     RDKit          3D

 14 15  0  0  0  0  0  0  0  0999 V2000
   -7.2496    3.8871   27.4508 C   0  0  0  0  0  0  0  0  0  0  0  0
   -7.6161    2.7143   27.1523 C   0  0  0  0  0  0  0  0  0  0  0  0
   -8.8302    2.4659   26.5056 C   0  0  0  0  0  0  0  0  0  0  0  0
   -8.1584    5.0090   27.3234 C   0  0  0  0  0  0  0  0  0  0  0  0
   -9.3788    4.7965   26.7695 C   0  0  0  0  0  0  0  0  0  0  0  0
   -9.7028    3.5649   26.3276 C   0  0  0  0  0  0  0  0  0  0  0  0
   -6.7190    1.5585   27.3667 C   0  0  0  0  0  0  0  0  0  0  0  0
   -7.0504    0.2135   27.2455 C   0  0  0  0  0  0  0  0  0  0  0  0
   -8.4198    0.0873   26.7028 C   0  0  0  0  0  0  0  0  0  0  0  0
   -9.2596    1.1156   26.3288 C   0  0  0  0  0  0  0  0  0  0  0  0
   -7.5086    6.2817   27.7171 C   0  0  0  0  0  0  0  0  0  0  0  0
   -6.1034   -1.0322   27.6613 Cl  0  0  0  0  0  0  0  0  0  0  0  0
   -7.9696    7.4615   27.3037 N   0  0  0  0  0  0  0  0  0  0  0  0
   -7.0467    6.3302   28.9065 O   0  0  0  0  0  0  0  0  0  0  0  0
  4 11  1  0
  8 12  1  0
 11 13  1  0
 11 14  2  0
  1  2  2  0
  3  6  2  0
  6  5  1  0
  5  4  2  0
  4  1  1  0
  2  3  1  0
  3 10  1  0
 10  9  2  0
  9  8  1  0
  8  7  2  0
  7  2  1  0
M  END
$$$$
