No_2985-complexes_sdf/6BKW-FPZ/2024-09-17-14-21-01/
     RDKit          3D

 27 29  0  0  0  0  0  0  0  0999 V2000
   -7.7129    4.2099   27.0854 C   0  0  0  0  0  0  0  0  0  0  0  0
   -8.9133    4.4736   27.0998 C   0  0  0  0  0  0  0  0  0  0  0  0
   -9.4616    5.6470   27.6290 C   0  0  0  0  0  0  0  0  0  0  0  0
   -7.2326    2.9175   26.7557 C   0  0  0  0  0  0  0  0  0  0  0  0
   -8.1546    1.9086   26.5054 C   0  0  0  0  0  0  0  0  0  0  0  0
   -9.4618    2.2289   26.4212 C   0  0  0  0  0  0  0  0  0  0  0  0
   -9.8481    3.4572   26.7692 C   0  0  0  0  0  0  0  0  0  0  0  0
   -7.6166    0.5674   26.2050 C   0  0  0  0  0  0  0  0  0  0  0  0
   -6.9790   -0.1220   26.9615 O   0  0  0  0  0  0  0  0  0  0  0  0
   -7.7238    0.1761   24.9638 O   0  0  0  0  0  0  0  0  0  0  0  0
   -8.5237    6.7814   27.5337 C   0  0  0  0  0  0  0  0  0  0  0  0
   -7.2213    6.5789   27.2372 C   0  0  0  0  0  0  0  0  0  0  0  0
   -6.7504    5.3128   27.1452 C   0  0  0  0  0  0  0  0  0  0  0  0
  -11.3218    3.7325   26.7218 C   0  0  0  0  0  0  0  0  0  0  0  0
  -11.9591    3.8680   27.9325 C   0  0  0  0  0  0  0  0  0  0  0  0
  -13.3279    4.2085   28.0675 C   0  0  0  0  0  0  0  0  0  0  0  0
  -14.0098    4.4302   26.8521 C   0  0  0  0  0  0  0  0  0  0  0  0
  -11.9885    3.9790   25.5789 C   0  0  0  0  0  0  0  0  0  0  0  0
  -13.3323    4.3687   25.6281 C   0  0  0  0  0  0  0  0  0  0  0  0
  -15.4312    4.8775   26.8732 C   0  0  0  0  0  0  0  0  0  0  0  0
  -16.2713    4.0004   27.0269 C   0  0  0  0  0  0  0  0  0  0  0  0
  -16.0842    2.8518   27.4077 C   0  0  0  0  0  0  0  0  0  0  0  0
  -15.7411    2.4013   28.3271 C   0  0  0  0  0  0  0  0  0  0  0  0
  -15.3812    0.9634   28.6913 C   0  0  0  0  0  0  0  0  0  0  0  0
  -14.8614    0.6103   29.9432 C   0  0  0  0  0  0  0  0  0  0  0  0
  -14.4520    1.5758   30.8682 C   0  0  0  0  0  0  0  0  0  0  0  0
  -14.6814    2.9086   30.6236 C   0  0  0  0  0  0  0  0  0  0  0  0
  5  8  1  0
  8  9  2  0
  8 10  1  0
  7 14  1  0
 17 20  1  0
 20 21  1  0
 21 22  1  0
 22 23  2  3
 23 24  1  0
 24 25  2  3
 25 26  1  0
 26 27  2  0
  2  3  2  0
  3 11  1  0
 11 12  2  0
 12 13  1  0
 13  1  2  0
 14 15  2  0
 15 16  1  0
 16 17  2  0
 17 19  1  0
 19 18  2  0
 18 14  1  0
  1  2  1  0
  2  7  1  0
  7  6  2  0
  6  5  1  0
  5  4  2  0
  4  1  1  0
M  END
$$$$
