No_2182-complexes_sdf/6BKW-FPZ/2024-09-17-14-21-01/
     RDKit          3D

 27 30  0  0  0  0  0  0  0  0999 V2000
   -7.9040    3.9820   27.1177 C   0  0  0  0  0  0  0  0  0  0  0  0
   -7.8663    4.8694   27.9238 C   0  0  0  0  0  0  0  0  0  0  0  0
   -9.0491    3.8523   26.2542 C   0  0  1  0  0  0  0  0  0  0  0  0
   -9.9827    3.2456   26.6451 C   0  0  0  0  0  0  0  0  0  0  0  0
  -10.7367    3.8670   27.7658 C   0  0  0  0  0  0  0  0  0  0  0  0
   -6.6666    5.5915   28.1646 C   0  0  0  0  0  0  0  0  0  0  0  0
  -11.8392    3.0783   28.3561 C   0  0  0  0  0  0  0  0  0  0  0  0
  -11.7719    1.6970   28.2114 C   0  0  0  0  0  0  0  0  0  0  0  0
  -11.0737    1.1124   27.1343 C   0  0  0  0  0  0  0  0  0  0  0  0
  -10.1624    1.8295   26.4111 C   0  0  0  0  0  0  0  0  0  0  0  0
   -9.3539    1.1383   25.4713 C   0  0  0  0  0  0  0  0  0  0  0  0
   -8.7801    0.0975   25.6135 C   0  0  0  0  0  0  0  0  0  0  0  0
   -8.1330   -0.5769   25.2395 C   0  0  0  0  0  0  0  0  0  0  0  0
   -7.6952   -0.2018   23.8130 C   0  0  0  0  0  0  0  0  0  0  0  0
   -8.3363    0.8984   23.2899 C   0  0  0  0  0  0  0  0  0  0  0  0
   -9.0937    1.7013   24.1653 C   0  0  0  0  0  0  0  0  0  0  0  0
  -12.6715    3.7014   29.3980 C   0  0  0  0  0  0  0  0  0  0  0  0
  -13.4067    2.9591   30.2947 C   0  0  0  0  0  0  0  0  0  0  0  0
  -14.2092    3.5904   31.2081 C   0  0  0  0  0  0  0  0  0  0  0  0
  -14.6812    4.8574   30.9002 C   0  0  0  0  0  0  0  0  0  0  0  0
  -14.2682    5.4793   29.7070 C   0  0  0  0  0  0  0  0  0  0  0  0
  -13.2855    4.9386   28.9150 C   0  0  0  0  0  0  0  0  0  0  0  0
  -15.5754    5.4883   31.6801 F   0  0  0  0  0  0  0  0  0  0  0  0
   -5.6107    4.7535   28.1103 N   0  0  0  0  0  0  0  0  0  0  0  0
   -5.6809    3.4937   27.6238 C   0  0  0  0  0  0  0  0  0  0  0  0
   -6.7767    3.1155   27.0114 C   0  0  0  0  0  0  0  0  0  0  0  0
   -9.1345    4.7170   25.0648 C   0  0  0  0  0  0  0  0  0  0  0  0
  1  3  1  0
  3  4  1  0
 10 11  1  0
  7 17  1  0
 20 23  1  0
  3 27  1  1
 11 12  2  0
 12 13  1  0
 13 14  2  0
 14 15  1  0
 15 16  2  0
 16 11  1  0
  4  5  2  0
  5  7  1  0
  7  8  2  0
  8  9  1  0
  9 10  2  0
 10  4  1  0
 17 18  2  0
 18 19  1  0
 19 20  2  0
 20 21  1  0
 21 22  2  0
 22 17  1  0
  1  2  2  0
  2  6  1  0
  6 24  2  0
 24 25  1  0
 25 26  2  0
 26  1  1  0
M  END
$$$$
