No_24-complexes_sdf/6BKW-FPZ/2024-09-17-14-21-01/
     RDKit          3D

 40 44  0  0  0  0  0  0  0  0999 V2000
   -7.9040    3.9820   27.1177 C   0  0  0  0  0  0  0  0  0  0  0  0
   -9.0711    4.3164   27.0630 C   0  0  0  0  0  0  0  0  0  0  0  0
   -9.5294    5.4517   27.7215 C   0  0  0  0  0  0  0  0  0  0  0  0
   -6.9328    4.7309   27.8881 C   0  0  0  0  0  0  0  0  0  0  0  0
   -7.3377    5.8421   28.5537 C   0  0  0  0  0  0  0  0  0  0  0  0
   -8.6411    6.2609   28.3972 C   0  0  0  0  0  0  0  0  0  0  0  0
  -10.0467    3.4917   26.2630 C   0  0  0  0  0  0  0  0  0  0  0  0
   -9.5472    2.5898   25.4413 C   0  0  0  0  0  0  0  0  0  0  0  0
  -10.4174    1.8980   24.6013 C   0  0  0  0  0  0  0  0  0  0  0  0
  -11.7396    2.2647   24.5006 C   0  0  0  0  0  0  0  0  0  0  0  0
  -11.4034    3.8066   25.9985 C   0  0  0  0  0  0  0  0  0  0  0  0
  -12.2164    3.2578   25.2483 C   0  0  0  0  0  0  0  0  0  0  0  0
   -9.8728    0.7624   23.7446 C   0  0  0  0  0  0  0  0  0  0  0  0
   -9.8347    0.8200   22.5729 N   0  0  0  0  0  0  0  0  0  0  0  0
   -9.8959    1.9424   21.8691 C   0  0  0  0  0  0  0  0  0  0  0  0
   -9.6109   -0.3334   21.6623 C   0  0  0  0  0  0  0  0  0  0  0  0
   -9.4191   -0.2342   24.4526 O   0  0  0  0  0  0  0  0  0  0  0  0
  -10.4847   -1.3265   21.6974 C   0  0  0  0  0  0  0  0  0  0  0  0
  -10.2400   -2.3549   20.9865 C   0  0  0  0  0  0  0  0  0  0  0  0
  -11.1034   -3.4117   20.7871 C   0  0  0  0  0  0  0  0  0  0  0  0
  -12.3366   -3.3063   21.4991 C   0  0  0  0  0  0  0  0  0  0  0  0
  -12.6128   -2.2245   22.2663 C   0  0  0  0  0  0  0  0  0  0  0  0
  -11.6553   -1.1722   22.3486 C   0  0  0  0  0  0  0  0  0  0  0  0
  -10.8331    2.2168   20.7803 C   0  0  0  0  0  0  0  0  0  0  0  0
  -11.8205    1.9728   20.6543 C   0  0  0  0  0  0  0  0  0  0  0  0
  -12.6764    2.1952   19.5203 C   0  0  0  0  0  0  0  0  0  0  0  0
  -12.0661    2.8390   18.4570 C   0  0  0  0  0  0  0  0  0  0  0  0
  -10.7670    3.2696   18.5753 C   0  0  0  0  0  0  0  0  0  0  0  0
  -10.0472    3.0167   19.7108 C   0  0  0  0  0  0  0  0  0  0  0  0
   -9.1327    2.9857   22.2952 O   0  0  0  0  0  0  0  0  0  0  0  0
   -8.4907   -0.3082   21.0934 O   0  0  0  0  0  0  0  0  0  0  0  0
   -5.6766    4.2147   28.0373 O   0  0  0  0  0  0  0  0  0  0  0  0
  -13.9109   -2.1705   23.0149 C   0  0  0  0  0  0  0  0  0  0  0  0
  -13.9475   -1.6306   24.2085 C   0  0  0  0  0  0  0  0  0  0  0  0
  -15.1875   -1.4603   24.9144 C   0  0  0  0  0  0  0  0  0  0  0  0
  -16.3131   -1.9443   24.2443 C   0  0  0  0  0  0  0  0  0  0  0  0
  -15.0872   -2.5390   22.4623 C   0  0  0  0  0  0  0  0  0  0  0  0
  -16.2579   -2.4228   23.0425 C   0  0  0  0  0  0  0  0  0  0  0  0
  -17.6403   -1.7853   24.9904 C   0  0  0  0  0  0  0  0  0  0  0  0
  -17.6777   -1.1499   26.0368 N   0  0  0  0  0  0  0  0  0  0  0  0
  2  7  1  0
  9 13  1  0
 13 14  1  0
 14 15  1  0
 14 16  1  0
 13 17  2  0
 16 18  1  0
 15 24  1  0
 15 30  2  0
 16 31  2  0
  4 32  1  0
 22 33  1  0
 36 39  1  0
 39 40  2  0
 18 19  2  0
 19 20  1  0
 20 21  2  0
 21 22  1  0
 22 23  2  0
 23 18  1  0
 24 25  2  0
 25 26  1  0
 26 27  2  0
 27 28  1  0
 28 29  2  0
 29 24  1  0
  1  2  2  0
  2  3  1  0
  3  6  2  0
  6  5  1  0
  5  4  2  0
  4  1  1  0
 33 34  2  0
 34 35  1  0
 35 36  2  0
 36 38  1  0
 38 37  2  0
 37 33  1  0
  7  8  2  0
  8  9  1  0
  9 10  2  0
 10 12  1  0
 12 11  2  0
 11  7  1  0
M  END
$$$$
