No_2364-complexes_sdf/6BKW-FPZ/2024-09-17-14-21-01/
     RDKit          3D

 13 14  0  0  0  0  0  0  0  0999 V2000
   -7.9040    3.9820   27.1177 C   0  0  0  0  0  0  0  0  0  0  0  0
   -7.8663    4.8694   27.9238 C   0  0  0  0  0  0  0  0  0  0  0  0
   -9.0491    3.8523   26.2542 C   0  0  1  0  0  0  0  0  0  0  0  0
   -9.4067    2.6808   25.6532 C   0  0  0  0  0  0  0  0  0  0  0  0
   -6.7320    5.1851   28.5661 C   0  0  0  0  0  0  0  0  0  0  0  0
  -10.5110    2.7055   24.7655 C   0  0  0  0  0  0  0  0  0  0  0  0
  -10.8282    1.6347   24.0267 C   0  0  0  0  0  0  0  0  0  0  0  0
  -10.0651    0.4285   24.2130 C   0  0  0  0  0  0  0  0  0  0  0  0
   -9.0080    0.3903   25.0689 C   0  0  0  0  0  0  0  0  0  0  0  0
   -8.6323    1.5441   25.7878 C   0  0  0  0  0  0  0  0  0  0  0  0
   -6.6829    6.1816   29.4087 N   0  0  0  0  0  0  0  0  0  0  0  0
   -9.8157    4.9891   26.6502 C   0  0  0  0  0  0  0  0  0  0  0  0
   -9.0021    5.7441   27.5251 C   0  0  0  0  0  0  0  0  0  0  0  0
  1  2  1  0
  1  3  1  0
  3  4  1  1
  2  5  2  3
  5 11  1  0
  3 12  1  0
  2 13  1  0
 12 13  1  0
  4  6  2  0
  6  7  1  0
  7  8  2  0
  8  9  1  0
  9 10  2  0
 10  4  1  0
M  END
$$$$
