No_2096-complexes_sdf/6BKW-FPZ/2024-09-17-14-21-01/
     RDKit          3D

 19 22  0  0  0  0  0  0  0  0999 V2000
   -7.9040    3.9820   27.1177 C   0  0  0  0  0  0  0  0  0  0  0  0
   -7.8663    4.8694   27.9238 C   0  0  0  0  0  0  0  0  0  0  0  0
   -9.0491    3.8523   26.2542 C   0  0  0  0  0  0  0  0  0  0  0  0
   -8.7661    5.9491   27.9690 C   0  0  0  0  0  0  0  0  0  0  0  0
   -9.1798    2.6731   25.4786 C   0  0  0  0  0  0  0  0  0  0  0  0
   -9.8964    5.8854   27.1460 C   0  0  0  0  0  0  0  0  0  0  0  0
   -9.9958    4.8034   26.3470 C   0  0  1  0  0  0  0  0  0  0  0  0
   -8.6595    1.4511   25.8687 C   0  0  0  0  0  0  0  0  0  0  0  0
   -9.8202    2.7632   24.2146 C   0  0  0  0  0  0  0  0  0  0  0  0
   -8.1093    1.2784   27.1736 C   0  0  0  0  0  0  0  0  0  0  0  0
  -10.4293    3.9424   23.8132 C   0  0  0  0  0  0  0  0  0  0  0  0
  -10.6508    4.9465   24.5943 C   0  0  0  0  0  0  0  0  0  0  0  0
   -7.3915    2.5986   27.6774 C   0  0  0  0  0  0  0  0  0  0  0  0
  -11.2127    4.0410   22.6004 C   0  0  2  0  0  0  0  0  0  0  0  0
  -11.9233    3.1652   22.2626 C   0  0  0  0  0  0  0  0  0  0  0  0
  -12.5889    3.1499   20.9915 C   0  0  0  0  0  0  0  0  0  0  0  0
  -12.3020    4.2700   20.1259 C   0  0  0  0  0  0  0  0  0  0  0  0
  -10.8837    5.1971   21.7737 C   0  0  0  0  0  0  0  0  0  0  0  0
  -11.4178    5.2300   20.4951 C   0  0  0  0  0  0  0  0  0  0  0  0
  1  2  1  0
  1  3  2  0
  2  4  1  0
  3  5  1  0
  4  6  2  0
  3  7  1  0
  6  7  1  0
  5  8  2  0
  5  9  1  0
  8 10  1  0
  9 11  2  0
  7 12  1  6
 11 12  1  0
  1 13  1  0
 10 13  1  0
 14 11  1  6
 14 15  1  0
 15 16  2  0
 16 17  1  0
 14 18  1  0
 17 19  2  0
 18 19  2  0
M  END
$$$$
