No_2989-complexes_sdf/6BKW-FPZ/2024-09-17-14-21-01/
     RDKit          3D

 30 34  0  0  0  0  0  0  0  0999 V2000
   -7.7129    4.2099   27.0854 C   0  0  0  0  0  0  0  0  0  0  0  0
   -8.2112    3.0637   26.9225 C   0  0  0  0  0  0  0  0  0  0  0  0
   -9.4446    2.8304   26.1868 C   0  0  0  0  0  0  0  0  0  0  0  0
   -8.4697    5.3956   26.7238 C   0  0  0  0  0  0  0  0  0  0  0  0
   -8.0091    6.7588   26.9904 C   0  0  0  0  0  0  0  0  0  0  0  0
  -10.1208    3.9213   25.7408 C   0  0  0  0  0  0  0  0  0  0  0  0
   -9.5939    5.2027   25.9665 C   0  0  0  0  0  0  0  0  0  0  0  0
   -8.5074    7.7344   26.5937 F   0  0  0  0  0  0  0  0  0  0  0  0
   -7.9911    6.7904   28.5011 F   0  0  0  0  0  0  0  0  0  0  0  0
   -7.4639    1.8063   27.3745 C   0  0  0  0  0  0  0  0  0  0  0  0
   -6.0850    1.8652   27.6773 C   0  0  0  0  0  0  0  0  0  0  0  0
   -5.3947    0.7342   28.1626 C   0  0  0  0  0  0  0  0  0  0  0  0
   -6.0725   -0.4757   28.1591 C   0  0  0  0  0  0  0  0  0  0  0  0
   -8.0201    0.5272   27.3953 C   0  0  0  0  0  0  0  0  0  0  0  0
   -7.4017   -0.5389   27.8268 C   0  0  0  0  0  0  0  0  0  0  0  0
   -3.9697    0.8761   28.5047 C   0  0  1  0  0  0  0  0  0  0  0  0
   -3.4718    0.1804   29.5395 N   0  0  0  0  0  0  0  0  0  0  0  0
   -2.5672   -0.8574   29.4259 C   0  0  1  0  0  0  0  0  0  0  0  0
   -1.9191   -1.0462   28.2719 C   0  0  0  0  0  0  0  0  0  0  0  0
   -2.2429   -1.5953   30.5944 C   0  0  0  0  0  0  0  0  0  0  0  0
   -2.8978   -1.3440   31.8162 C   0  0  0  0  0  0  0  0  0  0  0  0
   -3.8537   -0.4166   31.8639 C   0  0  0  0  0  0  0  0  0  0  0  0
   -3.9097    0.4695   30.9548 C   0  0  0  0  0  0  0  0  0  0  0  0
   -6.6495    6.8787   26.8538 F   0  0  0  0  0  0  0  0  0  0  0  0
   -2.0909   -0.1999   27.2237 C   0  0  0  0  0  0  0  0  0  0  0  0
   -3.3597    0.6701   27.4295 C   0  0  0  0  0  0  0  0  0  0  0  0
   -2.5548   -2.1846   32.9720 C   0  0  0  0  0  0  0  0  0  0  0  0
   -3.1782   -1.8892   34.1004 C   0  0  0  0  0  0  0  0  0  0  0  0
   -4.2641   -0.9747   34.1585 C   0  0  0  0  0  0  0  0  0  0  0  0
   -4.5710   -0.1893   33.1114 C   0  0  0  0  0  0  0  0  0  0  0  0
  4  5  1  0
  5  8  1  0
  5  9  1  0
  2 10  1  0
 16 12  1  6
 16 17  1  0
 17 18  1  0
 18 19  1  1
 18 20  1  0
 20 21  1  0
 17 23  1  0
 22 23  1  0
  5 24  1  0
 16 26  1  0
 25 26  1  0
 25 19  1  0
 21 22  2  0
 22 30  1  0
 30 29  2  0
 29 28  1  0
 28 27  2  0
 27 21  1  0
  1  2  2  0
  2  3  1  0
  3  6  2  0
  6  7  1  0
  7  4  2  0
  4  1  1  0
 10 11  2  0
 11 12  1  0
 12 13  2  0
 13 15  1  0
 15 14  2  0
 14 10  1  0
M  END
$$$$
