No_2041-complexes_sdf/6BKW-FPZ/2024-09-17-14-21-01/
     RDKit          3D

 24 26  0  0  0  0  0  0  0  0999 V2000
   -7.9040    3.9820   27.1177 C   0  0  0  0  0  0  0  0  0  0  0  0
   -8.2057    2.8231   26.8733 C   0  0  0  0  0  0  0  0  0  0  0  0
   -9.2962    2.4021   26.1155 C   0  0  0  0  0  0  0  0  0  0  0  0
   -8.7358    5.0662   26.5917 C   0  0  0  0  0  0  0  0  0  0  0  0
   -9.7618    4.7023   25.7546 C   0  0  0  0  0  0  0  0  0  0  0  0
  -10.0066    3.4105   25.4922 C   0  0  0  0  0  0  0  0  0  0  0  0
   -8.3943    6.4760   26.8801 C   0  0  0  0  0  0  0  0  0  0  0  0
   -7.3344    6.7074   26.8278 F   0  0  0  0  0  0  0  0  0  0  0  0
   -9.1158    6.7165   28.1569 F   0  0  0  0  0  0  0  0  0  0  0  0
   -8.9880    7.2588   25.9070 F   0  0  0  0  0  0  0  0  0  0  0  0
   -7.3533    1.6761   27.4978 C   0  0  1  0  0  0  0  0  0  0  0  0
   -6.4655    0.9600   26.6925 C   0  0  0  0  0  0  0  0  0  0  0  0
   -6.3239   -0.1838   27.2143 C   0  0  2  0  0  0  0  0  0  0  0  0
   -5.0177   -0.8018   27.0844 C   0  0  1  0  0  0  0  0  0  0  0  0
   -4.8611   -1.8778   26.6322 C   0  0  0  0  0  0  0  0  0  0  0  0
   -5.9361   -2.8340   26.5939 C   0  0  0  0  0  0  0  0  0  0  0  0
   -7.1909   -2.3452   26.9125 C   0  0  0  0  0  0  0  0  0  0  0  0
   -7.3745   -1.0931   26.7102 C   0  0  0  0  0  0  0  0  0  0  0  0
   -6.4447   -0.0975   28.8561 C   0  0  0  0  0  0  0  0  0  0  0  0
   -6.6898    2.0794   28.5292 O   0  0  0  0  0  0  0  0  0  0  0  0
   -5.8784    1.0715   29.0324 C   0  0  0  0  0  0  0  0  0  0  0  0
   -3.7868    0.1142   27.2084 C   0  0  0  0  0  0  0  0  0  0  0  0
   -2.5749   -0.3243   26.9123 C   0  0  0  0  0  0  0  0  0  0  0  0
   -2.4081   -1.6583   26.4228 C   0  0  0  0  0  0  0  0  0  0  0  0
  4  7  1  0
  7  8  1  0
  7  9  1  0
  7 10  1  0
 11  2  1  6
 11 12  1  0
 13 12  1  6
 13 14  1  0
 15 16  1  0
 13 18  1  0
 17 18  1  0
 13 19  1  0
 11 20  1  0
 19 21  2  0
 20 21  1  0
 14 22  1  0
 22 23  2  3
 23 24  1  0
 14 15  1  6
 16 17  1  0
  1  2  2  0
  2  3  1  0
  3  6  2  0
  6  5  1  0
  5  4  2  0
  4  1  1  0
M  END
$$$$
