No_2050-complexes_sdf/6BKW-FPZ/2024-09-17-14-21-01/
     RDKit          3D

 10 11  0  0  0  0  0  0  0  0999 V2000
   -7.2496    3.8871   27.4508 C   0  0  0  0  0  0  0  0  0  0  0  0
   -7.9379    4.9063   27.8518 C   0  0  0  0  0  0  0  0  0  0  0  0
   -8.7729    5.5444   27.0168 C   0  0  0  0  0  0  0  0  0  0  0  0
   -9.3298    4.9812   25.8706 C   0  0  0  0  0  0  0  0  0  0  0  0
   -6.4266    3.1263   28.3349 C   0  0  0  0  0  0  0  0  0  0  0  0
   -5.8413    1.8734   27.7494 C   0  0  0  0  0  0  0  0  0  0  0  0
   -8.8735    3.6974   25.5130 C   0  0  0  0  0  0  0  0  0  0  0  0
   -7.9621    3.1075   26.3659 C   0  0  0  0  0  0  0  0  0  0  0  0
   -6.5745    1.0306   26.9748 C   0  0  0  0  0  0  0  0  0  0  0  0
   -7.5816    1.7329   26.1225 C   0  0  0  0  0  0  0  0  0  0  0  0
  1  2  1  0
  2  3  1  0
  3  4  1  0
  4  7  1  0
  7  8  1  0
  1  5  2  0
  5  6  1  0
  6  9  2  0
  9 10  1  0
 10  8  2  0
  8  1  1  0
M  END
$$$$
