No_2659-complexes_sdf/6BKW-FPZ/2024-09-17-14-21-01/
     RDKit          3D

 19 20  0  0  0  0  0  0  0  0999 V2000
   -7.7129    4.2099   27.0854 C   0  0  0  0  0  0  0  0  0  0  0  0
   -8.2112    3.0637   26.9225 C   0  0  0  0  0  0  0  0  0  0  0  0
   -8.5108    5.3904   26.9436 C   0  0  0  0  0  0  0  0  0  0  0  0
   -7.9752    6.6981   27.2112 C   0  0  0  0  0  0  0  0  0  0  0  0
   -9.5213    2.8208   26.4688 C   0  0  0  0  0  0  0  0  0  0  0  0
  -10.2979    3.9327   26.2378 C   0  0  0  0  0  0  0  0  0  0  0  0
   -9.7894    5.2123   26.4395 C   0  0  0  0  0  0  0  0  0  0  0  0
   -7.3384    1.8199   27.1767 C   0  0  0  0  0  0  0  0  0  0  0  0
   -6.0583    2.0002   27.7739 C   0  0  0  0  0  0  0  0  0  0  0  0
   -5.2703    0.8342   28.0445 C   0  0  0  0  0  0  0  0  0  0  0  0
   -5.7662   -0.3982   27.8341 C   0  0  0  0  0  0  0  0  0  0  0  0
   -7.7756    0.5203   27.0159 C   0  0  0  0  0  0  0  0  0  0  0  0
   -7.0636   -0.5304   27.3550 C   0  0  0  0  0  0  0  0  0  0  0  0
   -6.8978    6.7807   27.8367 O   0  0  0  0  0  0  0  0  0  0  0  0
   -8.3093    7.8371   26.4662 N   0  0  0  0  0  0  0  0  0  0  0  0
   -4.0101    1.0664   28.5979 N   0  0  0  0  0  0  0  0  0  0  0  0
  -11.6214    3.7693   25.6679 C   0  0  0  0  0  0  0  0  0  0  0  0
  -11.8039    3.7807   24.3268 C   0  0  0  0  0  0  0  0  0  0  0  0
  -13.0655    3.6659   23.7323 C   0  0  0  0  0  0  0  0  0  0  0  0
  3  4  1  0
  2  8  1  0
  4 14  2  0
  4 15  1  0
 10 16  1  0
  6 17  1  0
 17 18  2  3
 18 19  1  0
  1  2  2  0
  2  5  1  0
  5  6  2  0
  6  7  1  0
  7  3  2  0
  3  1  1  0
  8  9  2  0
  9 10  1  0
 10 11  2  0
 11 13  1  0
 13 12  2  0
 12  8  1  0
M  END
$$$$
