No_2983-complexes_sdf/6BKW-FPZ/2024-09-17-14-21-01/
     RDKit          3D

 16 18  0  0  0  0  0  0  0  0999 V2000
   -7.9040    3.9820   27.1177 C   0  0  0  0  0  0  0  0  0  0  0  0
   -7.8663    4.8694   27.9238 C   0  0  0  0  0  0  0  0  0  0  0  0
   -7.4698    2.6989   27.4277 C   0  0  0  0  0  0  0  0  0  0  0  0
   -7.9683    1.5964   26.8266 C   0  0  0  0  0  0  0  0  0  0  0  0
   -8.9292    1.8436   25.8401 C   0  0  0  0  0  0  0  0  0  0  0  0
   -9.3947    3.0355   25.5467 C   0  0  0  0  0  0  0  0  0  0  0  0
   -8.9159    4.1263   26.2219 C   0  0  0  0  0  0  0  0  0  0  0  0
   -8.3077    6.1949   27.6366 N   0  0  0  0  0  0  0  0  0  0  0  0
   -9.1758    6.5356   26.6864 C   0  0  0  0  0  0  0  0  0  0  0  0
   -9.5149    5.4268   25.9153 C   0  0  0  0  0  0  0  0  0  0  0  0
   -7.4025    0.2525   27.0528 C   0  0  0  0  0  0  0  0  0  0  0  0
   -8.1158   -0.8362   27.0085 C   0  0  0  0  0  0  0  0  0  0  0  0
   -7.5810   -2.1087   27.3055 C   0  0  0  0  0  0  0  0  0  0  0  0
   -6.0344    0.1555   27.5038 C   0  0  0  0  0  0  0  0  0  0  0  0
   -5.4992   -1.0521   27.8896 C   0  0  0  0  0  0  0  0  0  0  0  0
   -6.2851   -2.1824   27.7936 C   0  0  0  0  0  0  0  0  0  0  0  0
  4 11  1  0
  1  2  2  0
  2  8  1  0
  8  9  2  0
  9 10  1  0
 10  7  2  0
 11 12  2  0
 12 13  1  0
 13 16  2  0
 16 15  1  0
 15 14  2  0
 14 11  1  0
  1  3  1  0
  3  4  2  0
  4  5  1  0
  5  6  2  0
  6  7  1  0
  7  1  1  0
M  END
$$$$
