No_2557-complexes_sdf/6BKW-FPZ/2024-09-17-14-21-01/
     RDKit          3D

 14 15  0  0  0  0  0  0  0  0999 V2000
   -7.7129    4.2099   27.0854 C   0  0  0  0  0  0  0  0  0  0  0  0
   -8.9133    4.4736   27.0998 C   0  0  0  0  0  0  0  0  0  0  0  0
   -9.4616    5.6470   27.6290 C   0  0  0  0  0  0  0  0  0  0  0  0
   -7.1883    4.1382   28.1736 C   0  0  0  0  0  0  0  0  0  0  0  0
   -7.3895    5.4969   28.9307 C   0  0  0  0  0  0  0  0  0  0  0  0
   -8.6161    6.0895   28.6885 C   0  0  0  0  0  0  0  0  0  0  0  0
   -9.7721    4.1943   25.7568 C   0  0  0  0  0  0  0  0  0  0  0  0
  -10.8418    3.3275   25.8990 C   0  0  0  0  0  0  0  0  0  0  0  0
  -11.6783    3.2214   24.8695 C   0  0  0  0  0  0  0  0  0  0  0  0
  -12.8914    2.5697   24.9668 C   0  0  0  0  0  0  0  0  0  0  0  0
  -13.2096    2.0000   26.1972 C   0  0  0  0  0  0  0  0  0  0  0  0
  -12.3618    2.1099   27.2939 C   0  0  0  0  0  0  0  0  0  0  0  0
  -11.1355    2.8202   27.1467 C   0  0  0  0  0  0  0  0  0  0  0  0
   -9.1731    4.3798   24.6707 O   0  0  0  0  0  0  0  0  0  0  0  0
  2  7  1  0
  7  8  1  0
  7 14  2  0
  1  2  2  0
  2  3  1  0
  3  6  2  0
  6  5  1  0
  5  4  2  0
  4  1  1  0
  8  9  2  0
  9 10  1  0
 10 11  2  0
 11 12  1  0
 12 13  2  0
 13  8  1  0
M  END
$$$$
