No_2501-complexes_sdf/6BKW-FPZ/2024-09-17-14-21-01/
     RDKit          3D

 21 22  0  0  0  0  0  0  0  0999 V2000
   -7.9040    3.9820   27.1177 C   0  0  0  0  0  0  0  0  0  0  0  0
   -8.2057    2.8231   26.8733 C   0  0  0  0  0  0  0  0  0  0  0  0
   -9.2962    2.4021   26.1155 C   0  0  0  0  0  0  0  0  0  0  0  0
   -8.7358    5.0662   26.5917 C   0  0  0  0  0  0  0  0  0  0  0  0
   -9.7618    4.7023   25.7546 C   0  0  0  0  0  0  0  0  0  0  0  0
  -10.0066    3.4105   25.4922 C   0  0  0  0  0  0  0  0  0  0  0  0
   -8.3943    6.4760   26.8801 C   0  0  0  0  0  0  0  0  0  0  0  0
   -8.6590    7.3213   26.1280 F   0  0  0  0  0  0  0  0  0  0  0  0
   -8.8552    6.6103   28.1538 F   0  0  0  0  0  0  0  0  0  0  0  0
   -7.0016    6.5587   27.1513 F   0  0  0  0  0  0  0  0  0  0  0  0
   -7.4519    1.7898   27.4699 F   0  0  0  0  0  0  0  0  0  0  0  0
  -11.1333    3.1448   24.5786 C   0  0  2  0  0  0  0  0  0  0  0  0
  -12.2952    2.7144   25.0479 C   0  0  0  0  0  0  0  0  0  0  0  0
  -12.5549    2.2658   26.0424 C   0  0  0  0  0  0  0  0  0  0  0  0
  -13.9241    1.8567   26.5310 C   0  0  0  0  0  0  0  0  0  0  0  0
  -14.9264    2.0553   25.6814 C   0  0  0  0  0  0  0  0  0  0  0  0
  -14.7151    2.6141   24.4581 C   0  0  0  0  0  0  0  0  0  0  0  0
  -13.4486    3.0238   24.0770 C   0  0  0  0  0  0  0  0  0  0  0  0
  -10.7710    3.2066   23.1750 C   0  0  0  0  0  0  0  0  0  0  0  0
  -10.8608    4.3726   22.4757 C   0  0  0  0  0  0  0  0  0  0  0  0
  -10.4392    4.4730   21.1215 C   0  0  0  0  0  0  0  0  0  0  0  0
  4  7  1  0
  7  8  1  0
  7  9  1  0
  7 10  1  0
  2 11  1  0
 12  6  1  1
 12 13  1  0
 12 19  1  0
 19 20  2  3
 20 21  1  0
 13 14  2  0
 14 15  1  0
 15 16  2  0
 16 17  1  0
 17 18  2  0
 18 13  1  0
  1  2  2  0
  2  3  1  0
  3  6  2  0
  6  5  1  0
  5  4  2  0
  4  1  1  0
M  END
$$$$
