No_296-complexes_sdf/6BKW-FPZ/2024-09-17-14-21-01/
     RDKit          3D

 25 28  0  0  0  0  0  0  0  0999 V2000
   -7.9040    3.9820   27.1177 C   0  0  0  0  0  0  0  0  0  0  0  0
   -9.0711    4.3164   27.0630 C   0  0  0  0  0  0  0  0  0  0  0  0
   -9.5182    5.5541   27.5777 C   0  0  0  0  0  0  0  0  0  0  0  0
   -6.9424    4.7983   27.8424 C   0  0  0  0  0  0  0  0  0  0  0  0
   -7.3526    5.9739   28.3909 C   0  0  0  0  0  0  0  0  0  0  0  0
   -8.6479    6.3742   28.2170 C   0  0  0  0  0  0  0  0  0  0  0  0
  -10.0793    3.4689   26.3368 C   0  0  0  0  0  0  0  0  0  0  0  0
   -9.6567    2.5965   25.4484 C   0  0  0  0  0  0  0  0  0  0  0  0
  -10.5086    1.8159   24.6228 C   0  0  0  0  0  0  0  0  0  0  0  0
  -11.8698    2.1070   24.6818 C   0  0  0  0  0  0  0  0  0  0  0  0
  -11.4792    3.7192   26.2197 C   0  0  0  0  0  0  0  0  0  0  0  0
  -12.3318    3.0883   25.5324 C   0  0  0  0  0  0  0  0  0  0  0  0
   -9.9717    0.7869   23.7392 C   0  0  0  0  0  0  0  0  0  0  0  0
   -9.8413    0.9958   22.4891 C   0  0  0  0  0  0  0  0  0  0  0  0
   -9.2215    0.0083   21.5883 C   0  0  0  0  0  0  0  0  0  0  0  0
   -8.6794   -1.1568   22.1588 C   0  0  0  0  0  0  0  0  0  0  0  0
   -8.7495   -1.3195   23.5127 C   0  0  0  0  0  0  0  0  0  0  0  0
   -9.3164   -0.3779   24.3384 C   0  0  0  0  0  0  0  0  0  0  0  0
  -10.3481    2.4309   21.6687 Cl  0  0  0  0  0  0  0  0  0  0  0  0
   -8.0693   -2.1348   21.2569 C   0  0  0  0  0  0  0  0  0  0  0  0
   -8.4577   -2.4747   20.0973 N   0  0  0  0  0  0  0  0  0  0  0  0
   -7.7032   -2.8341   19.0946 C   0  0  0  0  0  0  0  0  0  0  0  0
   -6.3377   -3.1686   19.4384 C   0  0  0  0  0  0  0  0  0  0  0  0
   -5.8143   -2.8187   20.6540 C   0  0  0  0  0  0  0  0  0  0  0  0
   -6.6189   -2.1581   21.5367 C   0  0  0  0  0  0  0  0  0  0  0  0
  2  7  1  0
  9 13  1  0
 14 19  1  0
 16 20  1  0
  7  8  2  0
  8  9  1  0
  9 10  2  0
 10 12  1  0
 12 11  2  0
 11  7  1  0
 13 14  2  0
 14 15  1  0
 15 16  2  0
 16 17  1  0
 17 18  2  0
 18 13  1  0
  1  2  2  0
  2  3  1  0
  3  6  2  0
  6  5  1  0
  5  4  2  0
  4  1  1  0
 20 21  2  0
 21 22  1  0
 22 23  2  0
 23 24  1  0
 24 25  2  0
 25 20  1  0
M  END
$$$$
