No_2997-complexes_sdf/6BKW-FPZ/2024-09-17-14-21-01/
     RDKit          3D

 25 28  0  0  0  0  0  0  0  0999 V2000
   -7.7129    4.2099   27.0854 C   0  0  0  0  0  0  0  0  0  0  0  0
   -8.2112    3.0637   26.9225 C   0  0  0  0  0  0  0  0  0  0  0  0
   -9.4446    2.8304   26.1868 C   0  0  0  0  0  0  0  0  0  0  0  0
   -8.4697    5.3956   26.7238 C   0  0  0  0  0  0  0  0  0  0  0  0
   -9.6172    5.2111   25.9513 C   0  0  0  0  0  0  0  0  0  0  0  0
  -10.0424    3.9782   25.6873 C   0  0  0  0  0  0  0  0  0  0  0  0
   -7.9321    6.5759   26.9449 F   0  0  0  0  0  0  0  0  0  0  0  0
   -9.8969    1.4744   25.9401 C   0  0  0  0  0  0  0  0  0  0  0  0
   -9.5407    0.6962   25.0471 C   0  0  0  0  0  0  0  0  0  0  0  0
   -9.9869   -0.6420   24.8476 C   0  0  0  0  0  0  0  0  0  0  0  0
  -10.6248   -0.9983   25.5353 C   0  0  0  0  0  0  0  0  0  0  0  0
  -10.7274    0.6082   26.8241 C   0  0  0  0  0  0  0  0  0  0  0  0
  -11.1272   -0.5466   26.7567 C   0  0  0  0  0  0  0  0  0  0  0  0
  -11.1325    1.5377   28.1613 C   0  0  2  0  0  0  0  0  0  0  0  0
  -12.2788    1.1877   28.7360 N   0  0  0  0  0  0  0  0  0  0  0  0
  -13.0029    2.2072   29.3541 C   0  0  0  0  0  0  0  0  0  0  0  0
  -12.4093    3.4781   29.4136 C   0  0  0  0  0  0  0  0  0  0  0  0
  -10.8499    2.9946   28.3511 C   0  0  0  0  0  0  0  0  0  0  0  0
  -13.3825    1.8655   30.7966 C   0  0  0  0  0  0  0  0  0  0  0  0
  -14.3786    0.9578   31.0016 C   0  0  0  0  0  0  0  0  0  0  0  0
  -14.8406    0.3347   30.2246 C   0  0  0  0  0  0  0  0  0  0  0  0
  -15.8428   -0.7758   30.4632 C   0  0  0  0  0  0  0  0  0  0  0  0
  -16.2174   -0.8939   31.7797 C   0  0  0  0  0  0  0  0  0  0  0  0
  -15.6764   -0.1555   32.7677 C   0  0  0  0  0  0  0  0  0  0  0  0
  -14.7217    0.8022   32.4780 C   0  0  0  0  0  0  0  0  0  0  0  0
  4  7  1  0
  3  8  1  0
 14 12  1  6
 14 15  1  0
 15 16  2  0
 16 17  1  0
 14 18  1  0
 17 18  1  0
 16 19  1  0
 19 20  1  0
  1  2  2  0
  2  3  1  0
  3  6  2  0
  6  5  1  0
  5  4  2  0
  4  1  1  0
 20 21  2  0
 21 22  1  0
 22 23  2  0
 23 24  1  0
 24 25  2  0
 25 20  1  0
  8  9  2  0
  9 10  1  0
 10 11  2  0
 11 13  1  0
 13 12  2  0
 12  8  1  0
M  END
$$$$
