No_2613-complexes_sdf/6BKW-FPZ/2024-09-17-14-21-01/
     RDKit          3D

 12 13  0  0  0  0  0  0  0  0999 V2000
   -7.2496    3.8871   27.4508 C   0  0  0  0  0  0  0  0  0  0  0  0
   -7.9379    4.9063   27.8518 C   0  0  0  0  0  0  0  0  0  0  0  0
   -8.7729    5.5444   27.0168 C   0  0  0  0  0  0  0  0  0  0  0  0
   -7.7891    2.8508   26.9558 C   0  0  0  0  0  0  0  0  0  0  0  0
   -9.4866    4.5916   26.1218 C   0  0  0  0  0  0  0  0  0  0  0  0
   -8.9123    3.3261   26.0079 C   0  0  0  0  0  0  0  0  0  0  0  0
   -9.5433    2.3755   25.0902 C   0  0  0  0  0  0  0  0  0  0  0  0
  -10.6085    1.9776   25.4314 C   0  0  0  0  0  0  0  0  0  0  0  0
  -11.3120    1.0444   24.4650 C   0  0  0  0  0  0  0  0  0  0  0  0
  -10.6622    0.7052   23.2922 C   0  0  0  0  0  0  0  0  0  0  0  0
   -9.3639    1.1961   23.0104 C   0  0  0  0  0  0  0  0  0  0  0  0
   -8.7639    2.0320   23.9057 C   0  0  0  0  0  0  0  0  0  0  0  0
  6  7  1  0
  1  2  2  0
  2  3  1  0
  3  5  2  0
  5  6  1  0
  6  4  2  0
  4  1  1  0
  7  8  2  0
  8  9  1  0
  9 10  2  0
 10 11  1  0
 11 12  2  0
 12  7  1  0
M  END
$$$$
