No_2961-complexes_sdf/6BKW-FPZ/2024-09-17-14-21-01/
     RDKit          3D

 23 26  0  0  0  0  0  0  0  0999 V2000
   -7.9040    3.9820   27.1177 C   0  0  0  0  0  0  0  0  0  0  0  0
   -8.2057    2.8231   26.8733 C   0  0  0  0  0  0  0  0  0  0  0  0
   -9.2962    2.4021   26.1155 C   0  0  0  0  0  0  0  0  0  0  0  0
   -8.7358    5.0662   26.5917 C   0  0  0  0  0  0  0  0  0  0  0  0
   -9.7618    4.7023   25.7546 C   0  0  0  0  0  0  0  0  0  0  0  0
  -10.0066    3.4105   25.4922 C   0  0  0  0  0  0  0  0  0  0  0  0
   -8.3943    6.4760   26.8801 C   0  0  0  0  0  0  0  0  0  0  0  0
   -8.0394    6.8605   28.0789 N   0  0  0  0  0  0  0  0  0  0  0  0
   -8.6300    7.3986   25.9542 N   0  0  0  0  0  0  0  0  0  0  0  0
   -7.3508    1.6718   27.4787 C   0  0  0  0  0  0  0  0  0  0  0  0
   -6.0062    1.9331   27.8000 C   0  0  0  0  0  0  0  0  0  0  0  0
   -5.1982    0.8700   28.2992 C   0  0  0  0  0  0  0  0  0  0  0  0
   -5.6896   -0.3985   28.3572 C   0  0  0  0  0  0  0  0  0  0  0  0
   -7.7434    0.3361   27.4811 C   0  0  0  0  0  0  0  0  0  0  0  0
   -6.9989   -0.6329   27.9724 C   0  0  0  0  0  0  0  0  0  0  0  0
   -4.8259   -1.4560   28.9203 C   0  0  0  0  0  0  0  0  0  0  0  0
   -4.9949   -2.0697   29.8928 C   0  0  0  0  0  0  0  0  0  0  0  0
   -4.6447   -2.5398   30.8246 C   0  0  0  0  0  0  0  0  0  0  0  0
   -3.3047   -2.2355   31.2741 C   0  0  0  0  0  0  0  0  0  0  0  0
   -2.5755   -1.5648   30.1946 C   0  0  0  0  0  0  0  0  0  0  0  0
   -3.3830   -0.9489   29.2105 C   0  0  0  0  0  0  0  0  0  0  0  0
   -2.6865    0.0051   28.3115 C   0  0  0  0  0  0  0  0  0  0  0  0
   -3.6621    1.0294   27.7824 C   0  0  0  0  0  0  0  0  0  0  0  0
  4  7  1  0
  7  8  1  0
  7  9  2  0
  2 10  1  0
  1  2  2  0
  2  3  1  0
  3  6  2  0
  6  5  1  0
  5  4  2  0
  4  1  1  0
 13 16  2  0
 21 22  2  0
 22 23  1  0
 23 12  2  0
 10 11  2  0
 11 12  1  0
 12 13  1  0
 13 15  1  0
 15 14  2  0
 14 10  1  0
 16 17  1  0
 17 18  2  0
 18 19  1  0
 19 20  2  0
 20 21  1  0
 21 16  1  0
M  END
$$$$
