No_288-complexes_sdf/6BKW-FPZ/2024-09-17-14-21-01/
     RDKit          3D

 16 18  0  0  0  0  0  0  0  0999 V2000
   -7.9040    3.9820   27.1177 C   0  0  0  0  0  0  0  0  0  0  0  0
   -8.2057    2.8231   26.8733 C   0  0  0  0  0  0  0  0  0  0  0  0
   -7.0130    4.3706   28.1140 C   0  0  0  0  0  0  0  0  0  0  0  0
   -9.3829    2.4374   26.1668 C   0  0  0  0  0  0  0  0  0  0  0  0
  -10.0975    3.4171   25.5988 C   0  0  0  0  0  0  0  0  0  0  0  0
   -9.7335    4.7745   25.7705 C   0  0  0  0  0  0  0  0  0  0  0  0
   -8.7317    5.1107   26.5933 C   0  0  0  0  0  0  0  0  0  0  0  0
   -8.4046    6.3778   26.8735 N   0  0  0  0  0  0  0  0  0  0  0  0
   -7.3944    6.7355   27.6995 C   0  0  0  0  0  0  0  0  0  0  0  0
   -6.8090    5.7776   28.3842 C   0  0  0  0  0  0  0  0  0  0  0  0
   -7.5903    1.5543   27.4122 C   0  0  0  0  0  0  0  0  0  0  0  0
   -7.9601    0.2879   27.1728 C   0  0  0  0  0  0  0  0  0  0  0  0
   -9.1141    0.1200   26.4113 C   0  0  0  0  0  0  0  0  0  0  0  0
   -9.8204    1.1538   25.8667 C   0  0  0  0  0  0  0  0  0  0  0  0
  -11.2023    3.2087   24.6208 C   0  0  0  0  0  0  0  0  0  0  0  0
  -12.4747    3.2641   24.9462 C   0  0  0  0  0  0  0  0  0  0  0  0
  5 15  1  0
 15 16  1  0
  4 14  2  0
 14 13  1  0
 13 12  2  0
 12 11  1  0
 11  2  2  0
  1  3  2  0
  3 10  1  0
 10  9  2  0
  9  8  1  0
  8  7  2  0
  1  2  1  0
  2  4  1  0
  4  5  1  0
  5  6  2  0
  6  7  1  0
  7  1  1  0
M  END
$$$$
