No_2590-complexes_sdf/6BKW-FPZ/2024-09-17-14-21-01/
     RDKit          3D

 25 28  0  0  0  0  0  0  0  0999 V2000
   -7.9040    3.9820   27.1177 C   0  0  0  0  0  0  0  0  0  0  0  0
   -8.2057    2.8231   26.8733 C   0  0  0  0  0  0  0  0  0  0  0  0
   -8.7695    5.0740   26.7916 C   0  0  0  0  0  0  0  0  0  0  0  0
   -9.9618    4.7598   26.1630 C   0  0  0  0  0  0  0  0  0  0  0  0
   -9.4200    2.4524   26.2849 C   0  0  0  0  0  0  0  0  0  0  0  0
  -10.2590    3.4815   25.9250 C   0  0  0  0  0  0  0  0  0  0  0  0
   -8.3840    6.4693   27.0829 C   0  0  0  0  0  0  0  0  0  0  0  0
   -7.9676    7.4862   26.9931 N   0  0  0  0  0  0  0  0  0  0  0  0
   -7.2799    1.6688   27.3023 C   0  0  0  0  0  0  0  0  0  0  0  0
   -6.1104    1.9806   27.8470 N   0  0  0  0  0  0  0  0  0  0  0  0
   -5.2659    0.9037   28.1757 C   0  0  0  0  0  0  0  0  0  0  0  0
   -5.7249   -0.3307   27.9839 C   0  0  0  0  0  0  0  0  0  0  0  0
   -7.4190    0.2653   27.2404 C   0  0  0  0  0  0  0  0  0  0  0  0
   -4.0061    1.2492   28.7238 N   0  0  0  0  0  0  0  0  0  0  0  0
   -7.4825   -0.8198   27.1280 C   0  0  0  0  0  0  0  0  0  0  0  0
   -6.2532   -1.2294   27.7604 C   0  0  0  0  0  0  0  0  0  0  0  0
   -8.5676   -1.5980   26.6504 C   0  0  0  0  0  0  0  0  0  0  0  0
   -8.9970   -1.5158   25.5771 O   0  0  0  0  0  0  0  0  0  0  0  0
   -9.1540   -2.5750   27.5006 N   0  0  0  0  0  0  0  0  0  0  0  0
  -10.2090   -2.9293   27.6937 C   0  0  0  0  0  0  0  0  0  0  0  0
  -11.1911   -2.7088   27.2673 C   0  0  0  0  0  0  0  0  0  0  0  0
  -12.5815   -3.1767   27.6077 C   0  0  0  0  0  0  0  0  0  0  0  0
  -12.6035   -4.0198   28.6968 C   0  0  0  0  0  0  0  0  0  0  0  0
  -11.5470   -4.2561   29.3308 C   0  0  0  0  0  0  0  0  0  0  0  0
  -10.2860   -3.7731   29.0545 C   0  0  0  0  0  0  0  0  0  0  0  0
  3  7  1  0
  7  8  3  0
  2  9  1  0
  9 10  1  0
 10 11  2  0
 11 12  1  0
  9 13  1  0
 12 13  2  0
 11 14  1  0
 13 15  1  0
 12 16  1  0
 15 16  2  0
 15 17  1  0
 17 18  2  0
 17 19  1  0
 19 20  1  0
  1  2  2  0
  2  5  1  0
  5  6  2  0
  6  4  1  0
  4  3  2  0
  3  1  1  0
 20 21  2  0
 21 22  1  0
 22 23  2  0
 23 24  1  0
 24 25  2  0
 25 20  1  0
M  END
$$$$
