No_2758-complexes_sdf/6BKW-FPZ/2024-09-17-14-21-01/
     RDKit          3D

 19 21  0  0  0  0  0  0  0  0999 V2000
   -7.9040    3.9820   27.1177 C   0  0  0  0  0  0  0  0  0  0  0  0
   -9.0711    4.3164   27.0630 C   0  0  0  0  0  0  0  0  0  0  0  0
   -9.5294    5.4517   27.7215 C   0  0  0  0  0  0  0  0  0  0  0  0
   -7.4336    2.7132   26.5681 C   0  0  0  0  0  0  0  0  0  0  0  0
   -8.3353    1.8569   26.0442 C   0  0  0  0  0  0  0  0  0  0  0  0
   -9.6477    2.2853   25.9146 C   0  0  0  0  0  0  0  0  0  0  0  0
  -10.0346    3.4497   26.4483 C   0  0  2  0  0  0  0  0  0  0  0  0
   -7.8750    0.5509   25.5918 C   0  0  0  0  0  0  0  0  0  0  0  0
   -8.4236   -0.3220   25.9782 O   0  0  0  0  0  0  0  0  0  0  0  0
   -6.9245    4.7081   27.8660 N   0  0  0  0  0  0  0  0  0  0  0  0
   -7.2687    5.8787   28.4513 C   0  0  0  0  0  0  0  0  0  0  0  0
   -8.5639    6.2576   28.3359 N   0  0  0  0  0  0  0  0  0  0  0  0
   -6.8867    0.4712   24.8016 O   0  0  0  0  0  0  0  0  0  0  0  0
  -11.4165    3.8720   26.1651 C   0  0  0  0  0  0  0  0  0  0  0  0
  -11.9609    4.0531   25.0299 C   0  0  0  0  0  0  0  0  0  0  0  0
  -13.3216    4.3151   24.8755 C   0  0  0  0  0  0  0  0  0  0  0  0
  -14.1468    4.6366   25.9963 C   0  0  0  0  0  0  0  0  0  0  0  0
  -13.5004    4.5961   27.2967 C   0  0  0  0  0  0  0  0  0  0  0  0
  -12.1907    4.2259   27.4438 C   0  0  0  0  0  0  0  0  0  0  0  0
  1  4  1  0
  4  5  1  0
  5  6  1  0
  2  7  1  0
  6  7  1  0
  5  8  1  0
  8  9  2  0
  8 13  1  0
  7 14  1  6
 14 15  2  0
 15 16  1  0
 16 17  2  0
 17 18  1  0
 18 19  2  0
 19 14  1  0
  1  2  1  0
  2  3  2  0
  3 12  1  0
 12 11  2  0
 11 10  1  0
 10  1  2  0
M  END
$$$$
