No_2738-complexes_sdf/6BKW-FPZ/2024-09-17-14-21-01/
     RDKit          3D

 26 28  0  0  0  0  0  0  0  0999 V2000
   -7.9040    3.9820   27.1177 C   0  0  0  0  0  0  0  0  0  0  0  0
   -9.0711    4.3164   27.0630 C   0  0  1  0  0  0  0  0  0  0  0  0
   -9.8698    3.9665   25.9495 C   0  0  0  0  0  0  0  0  0  0  0  0
   -6.9515    4.6878   28.0207 C   0  0  0  0  0  0  0  0  0  0  0  0
  -11.1591    3.4833   26.0876 C   0  0  2  0  0  0  0  0  0  0  0  0
  -11.2310    2.4524   26.8006 C   0  0  0  0  0  0  0  0  0  0  0  0
  -11.2452    2.7913   28.2804 C   0  0  1  0  0  0  0  0  0  0  0  0
  -11.3476    4.0412   28.7372 C   0  0  0  0  0  0  0  0  0  0  0  0
   -9.9290    3.9547   28.4258 C   0  0  2  0  0  0  0  0  0  0  0  0
   -9.1752    3.8541   29.2132 F   0  0  0  0  0  0  0  0  0  0  0  0
  -12.3657    2.2124   28.9590 C   0  0  0  0  0  0  0  0  0  0  0  0
  -13.1325    2.9131   29.7564 C   0  0  0  0  0  0  0  0  0  0  0  0
  -12.4311    0.7547   28.9334 C   0  0  0  0  0  0  0  0  0  0  0  0
  -14.0417    2.0856   30.6704 C   0  0  0  0  0  0  0  0  0  0  0  0
  -13.3719    0.0432   29.6601 C   0  0  0  0  0  0  0  0  0  0  0  0
  -14.1894    0.7743   30.5056 C   0  0  0  0  0  0  0  0  0  0  0  0
   -5.6952    4.1187   28.1530 N   0  0  0  0  0  0  0  0  0  0  0  0
   -9.7693    5.2922   25.0041 C   0  0  0  0  0  0  0  0  0  0  0  0
   -9.0881    2.8504   25.1790 C   0  0  0  0  0  0  0  0  0  0  0  0
  -11.9153    3.3085   24.6699 C   0  0  0  0  0  0  0  0  0  0  0  0
  -13.2325    3.7597   24.7939 C   0  0  0  0  0  0  0  0  0  0  0  0
  -13.9927    3.7249   23.6519 C   0  0  0  0  0  0  0  0  0  0  0  0
  -13.4022    3.4358   22.4648 C   0  0  0  0  0  0  0  0  0  0  0  0
  -12.0428    3.0817   22.4072 C   0  0  0  0  0  0  0  0  0  0  0  0
  -11.2915    3.0861   23.5375 C   0  0  0  0  0  0  0  0  0  0  0  0
   -9.2738    5.9924   27.3229 C   0  0  0  0  0  0  0  0  0  0  0  0
  1  2  1  0
  2  3  1  0
  1  4  1  0
  3  5  1  0
  5  6  1  0
  6  7  1  0
  7  8  1  0
  2  9  1  0
  8  9  1  0
  9 10  1  1
  7 11  1  1
  4 17  1  0
  3 18  1  0
  3 19  1  0
  5 20  1  6
  2 26  1  6
 11 12  2  0
 12 14  1  0
 14 16  2  0
 16 15  1  0
 15 13  2  0
 13 11  1  0
 20 21  2  0
 21 22  1  0
 22 23  2  0
 23 24  1  0
 24 25  2  0
 25 20  1  0
M  END
$$$$
