No_23-complexes_sdf/6BKW-FPZ/2024-09-17-14-21-01/
     RDKit          3D

 25 27  0  0  0  0  0  0  0  0999 V2000
   -7.9040    3.9820   27.1177 C   0  0  0  0  0  0  0  0  0  0  0  0
   -8.2057    2.8231   26.8733 C   0  0  0  0  0  0  0  0  0  0  0  0
   -7.0130    4.3706   28.1140 C   0  0  0  0  0  0  0  0  0  0  0  0
   -7.4093    1.7370   27.3857 C   0  0  0  0  0  0  0  0  0  0  0  0
   -6.1943    2.1490   28.0403 C   0  0  0  0  0  0  0  0  0  0  0  0
   -5.9708    3.4680   28.3199 C   0  0  0  0  0  0  0  0  0  0  0  0
   -8.9091    5.0939   26.7085 C   0  0  0  0  0  0  0  0  0  0  0  0
   -9.0084    6.2247   27.3657 N   0  0  0  0  0  0  0  0  0  0  0  0
   -9.5621    4.9448   25.5622 N   0  0  0  0  0  0  0  0  0  0  0  0
   -5.2393    1.0823   28.4025 C   0  0  0  0  0  0  0  0  0  0  0  0
   -5.5230   -0.2620   28.4465 C   0  0  0  0  0  0  0  0  0  0  0  0
   -4.7768   -1.0554   29.2328 C   0  0  0  0  0  0  0  0  0  0  0  0
   -3.5168   -0.6247   29.7325 C   0  0  0  0  0  0  0  0  0  0  0  0
   -3.1715    0.7021   29.5480 C   0  0  0  0  0  0  0  0  0  0  0  0
   -3.9659    1.5236   29.0301 C   0  0  0  0  0  0  0  0  0  0  0  0
   -2.6561   -1.6212   30.4573 C   0  0  0  0  0  0  0  0  0  0  0  0
   -1.6677   -1.9627   30.6021 F   0  0  0  0  0  0  0  0  0  0  0  0
   -3.4427   -2.9142   30.3451 F   0  0  0  0  0  0  0  0  0  0  0  0
  -10.3498    4.3463   24.8079 C   0  0  0  0  0  0  0  0  0  0  0  0
  -11.3961    3.6074   25.2259 C   0  0  0  0  0  0  0  0  0  0  0  0
  -12.2880    3.0398   24.3225 C   0  0  0  0  0  0  0  0  0  0  0  0
  -10.2692    4.2960   23.3756 C   0  0  0  0  0  0  0  0  0  0  0  0
  -11.0377    3.8700   22.4567 C   0  0  0  0  0  0  0  0  0  0  0  0
  -12.1317    3.1588   22.9868 C   0  0  0  0  0  0  0  0  0  0  0  0
   -2.8587   -1.2247   31.8802 F   0  0  0  0  0  0  0  0  0  0  0  0
  1  7  1  0
  7  8  1  0
  7  9  2  3
  5 10  1  0
 13 16  1  0
 16 17  1  0
 16 18  1  0
  9 19  1  0
 16 25  1  0
  1  2  2  0
  2  4  1  0
  4  5  2  0
  5  6  1  0
  6  3  2  0
  3  1  1  0
 19 20  2  0
 20 21  1  0
 21 24  2  0
 24 23  1  0
 23 22  2  0
 22 19  1  0
 10 11  2  0
 11 12  1  0
 12 13  2  0
 13 14  1  0
 14 15  2  0
 15 10  1  0
M  END
$$$$
