No_2150-complexes_sdf/6BKW-FPZ/2024-09-17-14-21-01/
     RDKit          3D

 17 18  0  0  0  0  0  0  0  0999 V2000
   -7.9040    3.9820   27.1177 C   0  0  0  0  0  0  0  0  0  0  0  0
   -8.2057    2.8231   26.8733 C   0  0  0  0  0  0  0  0  0  0  0  0
   -7.4766    1.7477   27.4593 C   0  0  1  0  0  0  0  0  0  0  0  0
   -8.7468    5.1251   26.6967 C   0  0  0  0  0  0  0  0  0  0  0  0
   -9.7234    4.8589   25.8202 C   0  0  0  0  0  0  0  0  0  0  0  0
   -9.9711    3.5858   25.4266 C   0  0  0  0  0  0  0  0  0  0  0  0
   -9.2266    2.4957   25.9600 C   0  0  0  0  0  0  0  0  0  0  0  0
   -7.9044    0.1211   27.3525 Cl  0  0  0  0  0  0  0  0  0  0  0  0
   -8.4118    6.5299   27.0601 C   0  0  0  0  0  0  0  0  0  0  0  0
   -7.9600    7.6106   27.0224 N   0  0  0  0  0  0  0  0  0  0  0  0
   -6.0719    1.9440   27.8571 C   0  0  0  0  0  0  0  0  0  0  0  0
   -5.2643    0.8512   28.3083 C   0  0  0  0  0  0  0  0  0  0  0  0
   -3.9417    1.2151   28.8781 C   0  0  0  0  0  0  0  0  0  0  0  0
   -3.1595    0.0284   29.0587 C   0  0  0  0  0  0  0  0  0  0  0  0
   -3.6303   -1.1862   29.0768 C   0  0  0  0  0  0  0  0  0  0  0  0
   -4.8964   -1.4543   28.6071 C   0  0  0  0  0  0  0  0  0  0  0  0
   -5.6835   -0.4063   28.2002 C   0  0  0  0  0  0  0  0  0  0  0  0
  2  3  1  0
  3  8  1  6
  4  9  1  0
  9 10  3  0
  3 11  1  0
 11 12  1  0
 12 13  2  0
 13 14  1  0
 14 15  2  0
 15 16  1  0
 16 17  2  0
 17 12  1  0
  1  2  2  0
  2  7  1  0
  7  6  2  0
  6  5  1  0
  5  4  2  0
  4  1  1  0
M  END
$$$$
