No_2602-complexes_sdf/6BKW-FPZ/2024-09-17-14-21-01/
     RDKit          3D

 20 21  0  0  0  0  0  0  0  0999 V2000
   -7.9040    3.9820   27.1177 C   0  0  0  0  0  0  0  0  0  0  0  0
   -7.8663    4.8694   27.9238 C   0  0  0  0  0  0  0  0  0  0  0  0
   -9.0491    3.8523   26.2542 C   0  0  0  0  0  0  0  0  0  0  0  0
   -8.7661    5.9491   27.9690 C   0  0  0  0  0  0  0  0  0  0  0  0
   -9.9295    4.8502   26.2323 C   0  0  0  0  0  0  0  0  0  0  0  0
   -9.8077    5.9288   27.0933 C   0  0  0  0  0  0  0  0  0  0  0  0
   -6.7865    2.5752   27.2348 P   0  0  1  0  0  0  0  0  0  0  0  0
   -7.3286    1.4838   26.5286 O   0  0  0  0  0  0  0  0  0  0  0  0
   -5.5426    3.0877   26.7337 O   0  0  0  0  0  0  0  0  0  0  0  0
   -6.6413    2.2725   28.7536 O   0  0  0  0  0  0  0  0  0  0  0  0
   -8.0168    1.7134   25.7449 F   0  0  0  0  0  0  0  0  0  0  0  0
  -11.0286    4.8329   25.2648 C   0  0  0  0  0  0  0  0  0  0  0  0
  -12.1807    4.1359   25.6480 C   0  0  0  0  0  0  0  0  0  0  0  0
  -12.4179    3.7999   26.9671 C   0  0  0  0  0  0  0  0  0  0  0  0
  -13.6635    3.2426   27.3545 C   0  0  0  0  0  0  0  0  0  0  0  0
  -14.5525    2.9517   26.3477 C   0  0  0  0  0  0  0  0  0  0  0  0
  -13.2135    3.8538   24.7588 C   0  0  0  0  0  0  0  0  0  0  0  0
  -14.3815    3.3192   25.0904 C   0  0  0  0  0  0  0  0  0  0  0  0
  -15.9070    2.3560   26.7547 C   0  0  0  0  0  0  0  0  0  0  0  0
  -16.2815    2.1562   27.9744 C   0  0  0  0  0  0  0  0  0  0  0  0
  1  7  1  0
  7  8  1  0
  7  9  2  0
  7 10  1  1
  8 11  1  0
  5 12  1  0
 12 13  1  0
 16 19  1  0
 19 20  2  0
  1  2  2  0
  2  4  1  0
  4  6  2  0
  6  5  1  0
  5  3  2  0
  3  1  1  0
 13 14  2  0
 14 15  1  0
 15 16  2  0
 16 18  1  0
 18 17  2  0
 17 13  1  0
M  END
$$$$
