No_2529-complexes_sdf/6BKW-FPZ/2024-09-17-14-21-01/
     RDKit          3D

 20 22  0  0  0  0  0  0  0  0999 V2000
   -7.2496    3.8871   27.4508 C   0  0  1  0  0  0  0  0  0  0  0  0
   -8.5096    4.0291   27.2770 C   0  0  0  0  0  0  0  0  0  0  0  0
   -9.2677    5.1714   27.5773 C   0  0  0  0  0  0  0  0  0  0  0  0
   -9.2765    2.8248   26.8371 C   0  0  0  0  0  0  0  0  0  0  0  0
  -10.4623    3.0171   26.3236 C   0  0  0  0  0  0  0  0  0  0  0  0
  -10.8972    2.6250   25.3350 C   0  0  0  0  0  0  0  0  0  0  0  0
  -12.2133    2.9588   24.7026 C   0  0  0  0  0  0  0  0  0  0  0  0
  -10.5843    5.3403   27.2292 C   0  0  0  0  0  0  0  0  0  0  0  0
  -11.1765    4.3354   26.5199 C   0  0  0  0  0  0  0  0  0  0  0  0
   -6.5516    4.9255   27.9614 N   0  0  0  0  0  0  0  0  0  0  0  0
   -6.6146    2.7977   27.3451 F   0  0  0  0  0  0  0  0  0  0  0  0
  -12.8592    3.9963   25.2157 C   0  0  0  0  0  0  0  0  0  0  0  0
  -12.3980    4.7390   26.0686 C   0  0  0  0  0  0  0  0  0  0  0  0
  -10.3261    1.3336   24.5826 C   0  0  0  0  0  0  0  0  0  0  0  0
   -9.6430    1.5893   23.5003 C   0  0  0  0  0  0  0  0  0  0  0  0
   -8.8384    0.5527   22.9332 C   0  0  0  0  0  0  0  0  0  0  0  0
   -8.6829   -0.6804   23.5863 C   0  0  0  0  0  0  0  0  0  0  0  0
  -10.2232    0.1752   25.3551 C   0  0  0  0  0  0  0  0  0  0  0  0
   -9.4116   -0.8759   24.7891 C   0  0  0  0  0  0  0  0  0  0  0  0
   -9.0033   -2.2500   25.6226 Cl  0  0  0  0  0  0  0  0  0  0  0  0
  1  2  1  0
  1 10  1  1
  1 11  1  0
  6 14  1  0
 19 20  1  0
 14 15  2  0
 15 16  1  0
 16 17  2  0
 17 19  1  0
 19 18  2  0
 18 14  1  0
  2  3  2  0
  3  8  1  0
  8  9  2  0
  5  4  2  0
  4  2  1  0
  5  6  1  0
  6  7  2  0
  7 12  1  0
 12 13  2  0
 13  9  1  0
  9  5  1  0
M  END
$$$$
