No_2807-complexes_sdf/6BKW-FPZ/2024-09-17-14-21-01/
     RDKit          3D

 18 19  0  0  0  0  0  0  0  0999 V2000
   -7.9040    3.9820   27.1177 C   0  0  0  0  0  0  0  0  0  0  0  0
   -9.0711    4.3164   27.0630 C   0  0  0  0  0  0  0  0  0  0  0  0
   -9.5294    5.4517   27.7215 C   0  0  0  0  0  0  0  0  0  0  0  0
   -6.9328    4.7309   27.8881 C   0  0  0  0  0  0  0  0  0  0  0  0
   -7.3723    5.8640   28.5535 C   0  0  0  0  0  0  0  0  0  0  0  0
   -8.6664    6.2670   28.3936 C   0  0  0  0  0  0  0  0  0  0  0  0
  -10.0790    3.5196   26.2646 C   0  0  0  0  0  0  0  0  0  0  0  0
   -9.9195    3.5852   24.8686 C   0  0  0  0  0  0  0  0  0  0  0  0
  -10.5619    2.7782   23.9701 C   0  0  0  0  0  0  0  0  0  0  0  0
  -10.2370    2.8705   22.5751 C   0  0  0  0  0  0  0  0  0  0  0  0
  -10.5996    2.2662   26.5440 C   0  0  0  0  0  0  0  0  0  0  0  0
  -11.2944    1.4137   25.8213 C   0  0  0  0  0  0  0  0  0  0  0  0
  -11.1676    1.6189   24.4140 C   0  0  0  0  0  0  0  0  0  0  0  0
  -10.3056    4.0823   21.9967 N   0  0  0  0  0  0  0  0  0  0  0  0
   -9.8830    1.9474   21.8874 F   0  0  0  0  0  0  0  0  0  0  0  0
  -10.6055    2.1552   28.5401 Br  0  0  0  0  0  0  0  0  0  0  0  0
  -10.7485    5.1690   22.7212 C   0  0  0  0  0  0  0  0  0  0  0  0
  -10.0969    4.2459   20.5828 C   0  0  0  0  0  0  0  0  0  0  0  0
  2  7  1  0
  9 10  1  0
 10 14  1  0
 10 15  1  0
 11 16  1  0
 14 17  1  0
 14 18  1  0
  1  2  2  0
  2  3  1  0
  3  6  2  0
  6  5  1  0
  5  4  2  0
  4  1  1  0
  7  8  2  0
  8  9  1  0
  9 13  2  0
 13 12  1  0
 12 11  2  0
 11  7  1  0
M  END
$$$$
