No_2658-complexes_sdf/6BKW-FPZ/2024-09-17-14-21-01/
     RDKit          3D

 17 19  0  0  0  0  0  0  0  0999 V2000
   -7.7129    4.2099   27.0854 C   0  0  0  0  0  0  0  0  0  0  0  0
   -8.2112    3.0637   26.9225 C   0  0  0  0  0  0  0  0  0  0  0  0
   -9.4446    2.8304   26.1868 C   0  0  0  0  0  0  0  0  0  0  0  0
   -8.4697    5.3956   26.7238 C   0  0  0  0  0  0  0  0  0  0  0  0
   -9.6172    5.2111   25.9513 C   0  0  0  0  0  0  0  0  0  0  0  0
  -10.0424    3.9782   25.6873 C   0  0  0  0  0  0  0  0  0  0  0  0
   -7.9172    6.7181   27.0124 C   0  0  0  0  0  0  0  0  0  0  0  0
   -8.4157    7.7972   26.4523 N   0  0  0  0  0  0  0  0  0  0  0  0
   -7.0176    6.7381   27.9413 O   0  0  0  0  0  0  0  0  0  0  0  0
   -7.5047    1.8012   27.3770 C   0  0  0  0  0  0  0  0  0  0  0  0
   -8.0557    0.5263   27.2786 C   0  0  0  0  0  0  0  0  0  0  0  0
   -7.3596   -0.5355   27.7106 C   0  0  0  0  0  0  0  0  0  0  0  0
   -8.0104   -1.8077   27.8154 C   0  0  0  0  0  0  0  0  0  0  0  0
   -9.3611   -1.8561   27.4675 C   0  0  0  0  0  0  0  0  0  0  0  0
  -10.0625   -0.7602   27.0935 C   0  0  0  0  0  0  0  0  0  0  0  0
   -9.4831    0.4574   27.1101 C   0  0  0  0  0  0  0  0  0  0  0  0
  -10.0880    1.5523   26.2436 C   0  0  0  0  0  0  0  0  0  0  0  0
  4  7  1  0
  7  8  1  0
  7  9  2  0
 11 12  1  0
 12 13  2  0
 13 14  1  0
 14 15  2  0
 15 16  1  0
  1  2  2  0
  3  6  2  0
  6  5  1  0
  5  4  2  0
  4  1  1  0
  2  3  1  0
  3 17  1  0
 17 16  2  0
 16 11  1  0
 11 10  2  0
 10  2  1  0
M  END
$$$$
