No_2909-complexes_sdf/6BKW-FPZ/2024-09-17-14-21-01/
     RDKit          3D

 16 17  0  0  0  0  0  0  0  0999 V2000
   -7.9040    3.9820   27.1177 C   0  0  0  0  0  0  0  0  0  0  0  0
   -7.8663    4.8694   27.9238 C   0  0  0  0  0  0  0  0  0  0  0  0
   -9.0491    3.8523   26.2542 C   0  0  0  0  0  0  0  0  0  0  0  0
   -8.7661    5.9491   27.9690 C   0  0  0  0  0  0  0  0  0  0  0  0
   -9.9295    4.8502   26.2323 C   0  0  0  0  0  0  0  0  0  0  0  0
   -9.8077    5.9288   27.0933 C   0  0  0  0  0  0  0  0  0  0  0  0
   -6.9606    2.7994   27.1981 C   0  0  0  0  0  0  0  0  0  0  0  0
   -7.2467    1.6107   27.7145 C   0  0  0  0  0  0  0  0  0  0  0  0
   -6.2994    0.5891   27.8126 C   0  0  0  0  0  0  0  0  0  0  0  0
   -4.9449    1.0418   27.8300 C   0  0  0  0  0  0  0  0  0  0  0  0
   -3.9399    0.0493   28.0150 C   0  0  0  0  0  0  0  0  0  0  0  0
   -2.6015    0.4341   28.0912 C   0  0  0  0  0  0  0  0  0  0  0  0
   -4.3735   -1.2779   28.2279 C   0  0  0  0  0  0  0  0  0  0  0  0
   -5.7009   -1.6471   28.1988 C   0  0  0  0  0  0  0  0  0  0  0  0
   -6.6601   -0.6826   28.0134 C   0  0  0  0  0  0  0  0  0  0  0  0
   -1.6876   -0.1108   27.3376 N   0  0  0  0  0  0  0  0  0  0  0  0
  1  7  1  0
  7  8  1  0
 11 12  1  0
 12 16  1  0
  8  9  1  0
  1  2  2  0
  2  4  1  0
  4  6  2  0
  6  5  1  0
  5  3  2  0
  3  1  1  0
  9 10  2  0
 10 11  1  0
 11 13  2  0
 13 14  1  0
 14 15  2  0
 15  9  1  0
M  END
$$$$
