No_2130-complexes_sdf/6BKW-FPZ/2024-09-17-14-21-01/
     RDKit          3D

 23 26  0  0  0  0  0  0  0  0999 V2000
   -7.7129    4.2099   27.0854 C   0  0  0  0  0  0  0  0  0  0  0  0
   -8.2112    3.0637   26.9225 C   0  0  0  0  0  0  0  0  0  0  0  0
   -8.4224    5.2106   27.8516 C   0  0  0  0  0  0  0  0  0  0  0  0
   -9.5628    2.7160   27.4089 C   0  0  0  0  0  0  0  0  0  0  0  0
  -10.2639    3.7034   28.1156 C   0  0  0  0  0  0  0  0  0  0  0  0
   -9.7059    4.9514   28.3169 C   0  0  0  0  0  0  0  0  0  0  0  0
  -11.6210    3.4159   28.6340 C   0  0  0  0  0  0  0  0  0  0  0  0
  -12.0063    2.0964   28.7914 C   0  0  0  0  0  0  0  0  0  0  0  0
  -13.2711    1.8145   29.3144 C   0  0  0  0  0  0  0  0  0  0  0  0
  -14.0706    2.8742   29.7475 C   0  0  0  0  0  0  0  0  0  0  0  0
  -13.7308    4.1819   29.5424 C   0  0  0  0  0  0  0  0  0  0  0  0
  -12.4864    4.4650   28.9918 C   0  0  0  0  0  0  0  0  0  0  0  0
   -7.5085    1.9328   26.3001 C   0  0  0  0  0  0  0  0  0  0  0  0
   -8.2071    1.1397   25.5028 N   0  0  0  0  0  0  0  0  0  0  0  0
   -7.8005   -0.0592   25.1697 C   0  0  0  0  0  0  0  0  0  0  0  0
   -6.8752   -0.6855   25.9004 C   0  0  0  0  0  0  0  0  0  0  0  0
   -6.1351   -1.7214   25.4505 C   0  0  0  0  0  0  0  0  0  0  0  0
   -6.5590   -2.3388   24.2609 C   0  0  0  0  0  0  0  0  0  0  0  0
   -7.6008   -1.7775   23.4983 C   0  0  0  0  0  0  0  0  0  0  0  0
   -8.1684   -0.5533   23.9167 C   0  0  0  0  0  0  0  0  0  0  0  0
   -9.3662    1.6765   24.7866 C   0  0  0  0  0  0  0  0  0  0  0  0
   -9.7628    1.3261   23.6589 C   0  0  0  0  0  0  0  0  0  0  0  0
   -9.1376    0.0821   23.1085 C   0  0  0  0  0  0  0  0  0  0  0  0
  5  7  1  0
  2 13  1  0
 13 14  1  0
 14 15  1  0
 14 21  1  0
 20 23  1  0
 22 23  1  0
 22 21  1  0
  1  2  2  0
  2  4  1  0
  4  5  2  0
  5  6  1  0
  6  3  2  0
  3  1  1  0
 15 16  2  0
 16 17  1  0
 17 18  2  0
 18 19  1  0
 19 20  2  0
 20 15  1  0
  7  8  2  0
  8  9  1  0
  9 10  2  0
 10 11  1  0
 11 12  2  0
 12  7  1  0
M  END
$$$$
