No_2906-complexes_sdf/6BKW-FPZ/2024-09-17-14-21-01/
     RDKit          3D

 40 44  0  0  0  0  0  0  0  0999 V2000
   -7.7129    4.2099   27.0854 C   0  0  0  0  0  0  0  0  0  0  0  0
   -7.7814    5.1722   27.8972 C   0  0  0  0  0  0  0  0  0  0  0  0
   -8.8776    3.8408   26.3416 C   0  0  0  0  0  0  0  0  0  0  0  0
   -9.9844    4.6492   26.4743 C   0  0  0  0  0  0  0  0  0  0  0  0
   -8.8033    6.1375   27.8728 C   0  0  0  0  0  0  0  0  0  0  0  0
   -9.9554    5.8280   27.1736 C   0  0  0  0  0  0  0  0  0  0  0  0
   -8.8740    2.6184   25.5584 C   0  0  0  0  0  0  0  0  0  0  0  0
   -9.6846    2.5240   24.5290 N   0  0  0  0  0  0  0  0  0  0  0  0
   -9.6378    1.3962   23.7938 C   0  0  0  0  0  0  0  0  0  0  0  0
   -8.1318    1.5611   25.9034 C   0  0  0  0  0  0  0  0  0  0  0  0
   -8.1041    0.3791   25.2304 C   0  0  0  0  0  0  0  0  0  0  0  0
   -8.8993    0.3296   24.0967 C   0  0  0  0  0  0  0  0  0  0  0  0
  -10.6849    1.3765   22.4123 Cl  0  0  0  0  0  0  0  0  0  0  0  0
   -6.6793    5.5934   28.5969 F   0  0  0  0  0  0  0  0  0  0  0  0
   -7.2495   -0.7413   25.6144 C   0  0  0  0  0  0  0  0  0  0  0  0
   -7.4348   -1.4214   26.4584 C   0  0  0  0  0  0  0  0  0  0  0  0
   -8.5746   -1.2447   27.4650 C   0  0  0  0  0  0  0  0  0  0  0  0
   -9.4878   -0.4205   27.3491 C   0  0  0  0  0  0  0  0  0  0  0  0
  -10.6513   -0.5294   28.3294 C   0  0  0  0  0  0  0  0  0  0  0  0
  -10.6910   -1.5087   29.2501 C   0  0  0  0  0  0  0  0  0  0  0  0
   -9.6616   -2.4271   29.3355 C   0  0  0  0  0  0  0  0  0  0  0  0
   -8.6335   -2.3855   28.5072 C   0  0  0  0  0  0  0  0  0  0  0  0
  -11.7486    0.5112   28.2436 C   0  0  0  0  0  0  0  0  0  0  0  0
  -11.4107    1.7825   28.0205 C   0  0  0  0  0  0  0  0  0  0  0  0
  -12.4452    2.8286   28.0719 C   0  0  0  0  0  0  0  0  0  0  0  0
  -13.7703    2.4512   28.1331 C   0  0  0  0  0  0  0  0  0  0  0  0
  -14.0664    1.0843   28.2607 C   0  0  0  0  0  0  0  0  0  0  0  0
  -13.0856    0.0969   28.3527 C   0  0  0  0  0  0  0  0  0  0  0  0
   -5.9077   -0.9421   24.5043 Cl  0  0  0  0  0  0  0  0  0  0  0  0
  -14.8255    3.4752   28.1203 C   0  0  2  0  0  0  0  0  0  0  0  0
  -14.9280    4.2327   29.1659 C   0  0  0  0  0  0  0  0  0  0  0  0
  -14.3831    4.1400   30.3269 C   0  0  0  0  0  0  0  0  0  0  0  0
  -13.4265    3.2576   30.7649 C   0  0  0  0  0  0  0  0  0  0  0  0
  -13.0051    3.3437   32.1822 C   0  0  0  0  0  0  0  0  0  0  0  0
  -13.5715    4.2357   33.0377 C   0  0  0  0  0  0  0  0  0  0  0  0
  -14.8477    5.0950   31.4257 C   0  0  0  0  0  0  0  0  0  0  0  0
  -14.4352    5.1341   32.6536 C   0  0  0  0  0  0  0  0  0  0  0  0
  -15.6836    3.1445   27.0481 C   0  0  0  0  0  0  0  0  0  0  0  0
  -16.1802    4.2823   26.4762 C   0  0  0  0  0  0  0  0  0  0  0  0
  -16.7656    4.1988   25.2539 C   0  0  0  0  0  0  0  0  0  0  0  0
  3  7  1  0
  9 13  1  0
  2 14  1  0
 11 15  1  0
 15 16  2  3
 16 17  1  0
 19 23  1  0
 15 29  1  0
 26 30  1  0
 30 31  1  1
 31 32  1  0
 30 38  1  0
 38 39  1  0
 39 40  2  0
 23 24  2  0
 24 25  1  0
 25 26  2  0
 26 27  1  0
 27 28  2  0
 28 23  1  0
 32 33  2  0
 33 34  1  0
 34 35  2  0
 35 37  1  0
 37 36  2  0
 36 32  1  0
  7  8  2  0
  8  9  1  0
  9 12  2  0
 12 11  1  0
 11 10  2  0
 10  7  1  0
 17 18  2  0
 18 19  1  0
 19 20  2  0
 20 21  1  0
 21 22  2  0
 22 17  1  0
  1  2  2  0
  2  5  1  0
  5  6  2  0
  6  4  1  0
  4  3  2  0
  3  1  1  0
M  END
$$$$
