No_2932-complexes_sdf/6BKW-FPZ/2024-09-17-14-21-01/
     RDKit          3D

 10 10  0  0  0  0  0  0  0  0999 V2000
   -7.2496    3.8871   27.4508 C   0  0  0  0  0  0  0  0  0  0  0  0
   -7.9379    4.9063   27.8518 C   0  0  0  0  0  0  0  0  0  0  0  0
   -7.5112    6.1898   27.6280 C   0  0  0  0  0  0  0  0  0  0  0  0
   -9.3085    4.6933   28.2930 C   0  0  0  0  0  0  0  0  0  0  0  0
   -7.5786    2.7932   27.1180 C   0  0  0  0  0  0  0  0  0  0  0  0
   -9.0255    2.4255   27.3444 C   0  0  0  0  0  0  0  0  0  0  0  0
   -9.8121    3.4148   27.9722 C   0  0  0  0  0  0  0  0  0  0  0  0
  -11.2024    3.0319   28.3703 C   0  0  0  0  0  0  0  0  0  0  0  0
  -12.1745    2.9897   27.4799 C   0  0  0  0  0  0  0  0  0  0  0  0
  -13.4833    2.7027   27.9121 C   0  0  0  0  0  0  0  0  0  0  0  0
  2  3  1  0
  7  8  1  0
  8  9  2  3
  9 10  1  0
  1  2  2  0
  2  4  1  0
  4  7  2  0
  7  6  1  0
  6  5  2  0
  5  1  1  0
M  END
$$$$
