No_250-complexes_sdf/6BKW-FPZ/2024-09-17-14-21-01/
     RDKit          3D

 40 45  0  0  0  0  0  0  0  0999 V2000
   -7.9040    3.9820   27.1177 C   0  0  0  0  0  0  0  0  0  0  0  0
   -9.0711    4.3164   27.0630 C   0  0  0  0  0  0  0  0  0  0  0  0
  -10.0395    3.8218   27.1938 C   0  0  0  0  0  0  0  0  0  0  0  0
   -7.6424    2.5858   27.3610 C   0  0  0  0  0  0  0  0  0  0  0  0
   -6.3587    2.0254   27.5043 C   0  0  0  0  0  0  0  0  0  0  0  0
  -10.0535    2.3534   27.5126 C   0  0  0  0  0  0  0  0  0  0  0  0
   -8.7612    1.7909   27.6094 C   0  0  0  0  0  0  0  0  0  0  0  0
   -6.0832    0.6696   27.4395 C   0  0  0  0  0  0  0  0  0  0  0  0
   -4.8132    0.1906   27.6435 C   0  0  0  0  0  0  0  0  0  0  0  0
   -3.8348    1.1009   28.0965 C   0  0  0  0  0  0  0  0  0  0  0  0
   -5.2426    2.7310   28.0232 C   0  0  0  0  0  0  0  0  0  0  0  0
   -4.0642    2.2997   28.2536 N   0  0  0  0  0  0  0  0  0  0  0  0
   -9.1711    5.9477   26.7030 C   0  0  0  0  0  0  0  0  0  0  0  0
   -8.3252    6.8651   27.2038 C   0  0  0  0  0  0  0  0  0  0  0  0
   -8.3768    8.2149   26.7050 C   0  0  0  0  0  0  0  0  0  0  0  0
  -11.2516    1.5706   27.7588 C   0  0  0  0  0  0  0  0  0  0  0  0
  -11.1263    0.2753   27.8755 C   0  0  0  0  0  0  0  0  0  0  0  0
  -12.2388   -0.5642   28.3369 C   0  0  0  0  0  0  0  0  0  0  0  0
  -13.4253    0.1226   28.5910 C   0  0  0  0  0  0  0  0  0  0  0  0
  -13.5253    1.4732   28.4919 C   0  0  0  0  0  0  0  0  0  0  0  0
  -12.4253    2.2569   28.1946 C   0  0  0  0  0  0  0  0  0  0  0  0
   -7.3573    9.0087   27.2839 C   0  0  0  0  0  0  0  0  0  0  0  0
   -7.0789    6.5087   27.8122 C   0  0  0  0  0  0  0  0  0  0  0  0
   -6.1835    7.4355   28.1212 N   0  0  0  0  0  0  0  0  0  0  0  0
   -6.2456    8.6714   27.8344 C   0  0  0  0  0  0  0  0  0  0  0  0
   -2.5818    0.5420   28.3544 N   0  0  0  0  0  0  0  0  0  0  0  0
  -14.7946   -0.8697   29.0144 Cl  0  0  0  0  0  0  0  0  0  0  0  0
   -2.1975   -0.7833   28.1886 C   0  0  0  0  0  0  0  0  0  0  0  0
   -3.1995   -1.6269   27.7654 C   0  0  0  0  0  0  0  0  0  0  0  0
   -4.4918   -1.2181   27.4979 C   0  0  0  0  0  0  0  0  0  0  0  0
   -5.4565   -2.1534   26.9760 C   0  0  0  0  0  0  0  0  0  0  0  0
   -5.2381   -2.8671   26.0484 C   0  0  0  0  0  0  0  0  0  0  0  0
   -6.1865   -3.8093   25.4376 C   0  0  0  0  0  0  0  0  0  0  0  0
   -7.4667   -3.7456   25.9248 C   0  0  0  0  0  0  0  0  0  0  0  0
   -7.7880   -2.8827   26.9670 C   0  0  0  0  0  0  0  0  0  0  0  0
   -6.8547   -2.0548   27.5300 C   0  0  0  0  0  0  0  0  0  0  0  0
   -8.4782   -4.6531   25.3988 C   0  0  0  0  0  0  0  0  0  0  0  0
   -9.5883   -4.4481   25.3029 N   0  0  0  0  0  0  0  0  0  0  0  0
  -10.2035   -3.3515   25.6187 C   0  0  0  0  0  0  0  0  0  0  0  0
   -9.9997   -2.3953   26.6482 C   0  0  0  0  0  0  0  0  0  0  0  0
  4  5  1  0
  2 13  1  0
 13 14  1  0
  6 16  1  0
 19 27  1  0
 30 31  1  0
 34 37  1  0
 37 38  1  0
 38 39  1  0
 39 40  2  0
  1  2  2  0
  2  3  1  0
  3  6  2  0
  6  7  1  0
  7  4  2  0
  4  1  1  0
  5  8  2  0
  8  9  1  0
 10 12  1  0
 12 11  2  0
 11  5  1  0
  9 10  2  0
 10 26  1  0
 26 28  2  0
 28 29  1  0
 29 30  2  0
 30  9  1  0
 31 32  2  0
 32 33  1  0
 33 34  2  0
 34 35  1  0
 35 36  2  0
 36 31  1  0
 14 15  2  0
 15 22  1  0
 22 25  2  0
 25 24  1  0
 24 23  2  0
 23 14  1  0
 16 17  2  0
 17 18  1  0
 18 19  2  0
 19 20  1  0
 20 21  2  0
 21 16  1  0
M  END
$$$$
