No_2233-complexes_sdf/6BKW-FPZ/2024-09-17-14-21-01/
     RDKit          3D

 19 20  0  0  0  0  0  0  0  0999 V2000
   -7.9040    3.9820   27.1177 C   0  0  0  0  0  0  0  0  0  0  0  0
   -7.8663    4.8694   27.9238 C   0  0  0  0  0  0  0  0  0  0  0  0
   -9.0491    3.8523   26.2542 C   0  0  0  0  0  0  0  0  0  0  0  0
   -8.7661    5.9491   27.9690 C   0  0  0  0  0  0  0  0  0  0  0  0
   -9.9279    4.8544   26.1938 C   0  0  0  0  0  0  0  0  0  0  0  0
   -9.8044    5.9413   27.0782 C   0  0  0  0  0  0  0  0  0  0  0  0
   -6.8187    2.6151   27.2343 Cl  0  0  0  0  0  0  0  0  0  0  0  0
   -9.1113    2.6953   25.2893 C   0  0  0  0  0  0  0  0  0  0  0  0
  -10.2230    1.9973   25.5031 C   0  0  0  0  0  0  0  0  0  0  0  0
  -11.1682    1.9510   26.0092 C   0  0  0  0  0  0  0  0  0  0  0  0
  -11.9533    1.4863   26.5684 C   0  0  0  0  0  0  0  0  0  0  0  0
  -12.6378    1.0711   27.4594 C   0  0  0  0  0  0  0  0  0  0  0  0
  -12.5034   -0.0909   28.1840 C   0  0  0  0  0  0  0  0  0  0  0  0
  -13.9304    1.7654   27.7357 C   0  0  0  0  0  0  0  0  0  0  0  0
  -11.3420   -0.8279   28.1172 C   0  0  0  0  0  0  0  0  0  0  0  0
  -11.1353   -1.9439   28.9791 C   0  0  0  0  0  0  0  0  0  0  0  0
  -14.7256    1.3163   28.6291 C   0  0  0  0  0  0  0  0  0  0  0  0
  -14.5684    0.1947   29.4154 C   0  0  0  0  0  0  0  0  0  0  0  0
  -13.3891   -0.5434   29.2632 C   0  0  0  0  0  0  0  0  0  0  0  0
  1  7  1  0
  3  8  1  0
  8  9  1  0
  9 10  2  3
 10 11  1  0
 13 15  1  0
 15 16  3  0
 11 12  1  0
 12 13  2  0
 13 19  1  0
 19 18  2  0
 18 17  1  0
 17 14  2  0
 14 12  1  0
  1  2  2  0
  2  4  1  0
  4  6  2  0
  6  5  1  0
  5  3  2  0
  3  1  1  0
M  END
$$$$
