No_257-complexes_sdf/6BKW-FPZ/2024-09-17-14-21-01/
     RDKit          3D

 16 17  0  0  0  0  0  0  0  0999 V2000
   -7.9040    3.9820   27.1177 C   0  0  0  0  0  0  0  0  0  0  0  0
   -8.2057    2.8231   26.8733 C   0  0  0  0  0  0  0  0  0  0  0  0
   -9.3234    2.2125   27.0599 C   0  0  0  0  0  0  0  0  0  0  0  0
   -9.0146    4.9428   27.2420 C   0  0  0  0  0  0  0  0  0  0  0  0
  -10.2851    4.4096   27.2820 C   0  0  0  0  0  0  0  0  0  0  0  0
  -10.4907    3.0453   27.2378 C   0  0  0  0  0  0  0  0  0  0  0  0
   -8.5252    6.3482   27.3139 C   0  0  0  0  0  0  0  0  0  0  0  0
   -9.4226    7.2433   27.2724 O   0  0  0  0  0  0  0  0  0  0  0  0
   -7.3241    6.6311   27.3255 O   0  0  0  0  0  0  0  0  0  0  0  0
   -9.5608    0.7248   26.9454 C   0  0  0  0  0  0  0  0  0  0  0  0
  -10.4681    0.1553   27.6549 C   0  0  0  0  0  0  0  0  0  0  0  0
  -10.6137   -1.2673   27.7253 C   0  0  0  0  0  0  0  0  0  0  0  0
   -9.6719   -1.9977   27.0644 C   0  0  0  0  0  0  0  0  0  0  0  0
   -8.5398   -0.0827   26.3941 C   0  0  0  0  0  0  0  0  0  0  0  0
   -8.6278   -1.4102   26.4099 C   0  0  0  0  0  0  0  0  0  0  0  0
   -7.4685   -2.3537   25.5869 Cl  0  0  0  0  0  0  0  0  0  0  0  0
  4  7  1  0
  7  8  2  0
  7  9  1  0
  3 10  1  0
 15 16  1  0
  1  2  2  0
  2  3  1  0
  3  6  2  0
  6  5  1  0
  5  4  2  0
  4  1  1  0
 10 11  2  0
 11 12  1  0
 12 13  2  0
 13 15  1  0
 15 14  2  0
 14 10  1  0
M  END
$$$$
