No_2447-complexes_sdf/6BKW-FPZ/2024-09-17-14-21-01/
     RDKit          3D

 19 21  0  0  0  0  0  0  0  0999 V2000
   -7.9040    3.9820   27.1177 C   0  0  0  0  0  0  0  0  0  0  0  0
   -7.8663    4.8694   27.9238 C   0  0  0  0  0  0  0  0  0  0  0  0
   -7.4698    2.6989   27.4277 C   0  0  0  0  0  0  0  0  0  0  0  0
   -7.9683    1.5964   26.8266 C   0  0  0  0  0  0  0  0  0  0  0  0
   -8.9292    1.8436   25.8401 C   0  0  0  0  0  0  0  0  0  0  0  0
   -9.3947    3.0355   25.5467 C   0  0  0  0  0  0  0  0  0  0  0  0
   -8.9159    4.1263   26.2219 C   0  0  0  0  0  0  0  0  0  0  0  0
   -8.1107    6.0821   27.8134 N   0  0  0  0  0  0  0  0  0  0  0  0
   -9.0865    6.5661   26.9428 C   0  0  0  0  0  0  0  0  0  0  0  0
   -9.5710    5.4443   25.8556 C   0  0  0  0  0  0  0  0  0  0  0  0
   -7.4040    0.2500   27.0443 C   0  0  0  0  0  0  0  0  0  0  0  0
   -6.1623    0.0529   27.5508 C   0  0  0  0  0  0  0  0  0  0  0  0
   -5.2200    1.0875   27.6412 C   0  0  0  0  0  0  0  0  0  0  0  0
   -3.9433    0.6590   28.1920 C   0  0  0  0  0  0  0  0  0  0  0  0
   -3.7350   -0.5301   28.7305 C   0  0  0  0  0  0  0  0  0  0  0  0
   -4.7006   -1.5062   28.6533 C   0  0  0  0  0  0  0  0  0  0  0  0
   -5.9181   -1.2086   28.1224 C   0  0  0  0  0  0  0  0  0  0  0  0
   -8.2037   -0.7153   26.7409 O   0  0  0  0  0  0  0  0  0  0  0  0
   -2.1761   -0.8597   29.4414 Cl  0  0  0  0  0  0  0  0  0  0  0  0
  4 11  1  0
 11 12  1  0
 11 18  2  0
 15 19  1  0
 12 13  2  0
 13 14  1  0
 14 15  2  0
 15 16  1  0
 16 17  2  0
 17 12  1  0
  1  2  2  0
  2  8  1  0
  8  9  2  0
  9 10  1  0
 10  7  2  0
  1  3  1  0
  3  4  2  0
  4  5  1  0
  5  6  2  0
  6  7  1  0
  7  1  1  0
M  END
$$$$
