No_2696-complexes_sdf/6BKW-FPZ/2024-09-17-14-21-01/
     RDKit          3D

 27 29  0  0  0  0  0  0  0  0999 V2000
   -7.2496    3.8871   27.4508 C   0  0  0  0  0  0  0  0  0  0  0  0
   -7.9379    4.9063   27.8518 C   0  0  0  0  0  0  0  0  0  0  0  0
   -9.3460    4.8223   27.8695 C   0  0  0  0  0  0  0  0  0  0  0  0
   -7.8628    2.6163   27.1065 C   0  0  0  0  0  0  0  0  0  0  0  0
   -9.2787    2.5744   27.1970 C   0  0  0  0  0  0  0  0  0  0  0  0
  -10.0108    3.6770   27.6340 C   0  0  0  0  0  0  0  0  0  0  0  0
  -11.4855    3.5731   27.7420 C   0  0  0  0  0  0  0  0  0  0  0  0
  -11.9299    2.8562   28.8221 C   0  0  0  0  0  0  0  0  0  0  0  0
  -13.2938    2.7194   29.1618 C   0  0  0  0  0  0  0  0  0  0  0  0
  -14.1926    3.3847   28.3454 C   0  0  0  0  0  0  0  0  0  0  0  0
  -13.7349    4.1610   27.2718 C   0  0  0  0  0  0  0  0  0  0  0  0
  -12.3654    4.3305   26.9983 C   0  0  0  0  0  0  0  0  0  0  0  0
   -7.1792    1.5860   26.8021 F   0  0  0  0  0  0  0  0  0  0  0  0
   -7.1440    6.4088   28.1567 Cl  0  0  0  0  0  0  0  0  0  0  0  0
  -13.7520    1.8615   30.2725 C   0  0  0  0  0  0  0  0  0  0  0  0
  -15.0375    1.7609   30.3867 O   0  0  0  0  0  0  0  0  0  0  0  0
  -12.9933    1.3423   31.0726 O   0  0  0  0  0  0  0  0  0  0  0  0
  -10.1159    0.9494   26.8956 Br  0  0  0  0  0  0  0  0  0  0  0  0
  -14.6649    4.9475   26.4377 C   0  0  1  0  0  0  0  0  0  0  0  0
  -15.8224    4.3576   25.6315 Cl  0  0  0  0  0  0  0  0  0  0  0  0
  -15.2048    6.0420   27.4681 C   0  0  0  0  0  0  0  0  0  0  0  0
  -16.3695    6.0709   28.0056 C   0  0  0  0  0  0  0  0  0  0  0  0
  -17.3416    5.9207   27.6727 C   0  0  0  0  0  0  0  0  0  0  0  0
  -18.6285    6.0082   28.3806 C   0  0  0  0  0  0  0  0  0  0  0  0
  -18.4882    6.0128   29.4631 C   0  0  0  0  0  0  0  0  0  0  0  0
  -16.3744    6.2710   29.5236 C   0  0  0  0  0  0  0  0  0  0  0  0
  -17.3645    6.2591   30.2913 C   0  0  0  0  0  0  0  0  0  0  0  0
  6  7  1  0
  4 13  1  0
  2 14  1  0
  9 15  1  0
 15 16  2  0
 15 17  1  0
  5 18  1  0
 11 19  1  0
 19 20  1  1
 19 21  1  0
 21 22  1  0
  1  2  2  0
  2  3  1  0
  3  6  2  0
  6  5  1  0
  5  4  2  0
  4  1  1  0
 22 23  2  0
 23 24  1  0
 24 25  2  0
 25 27  1  0
 27 26  2  0
 26 22  1  0
  7  8  2  0
  8  9  1  0
  9 10  2  0
 10 11  1  0
 11 12  2  0
 12  7  1  0
M  END
$$$$
