No_2682-complexes_sdf/6BKW-FPZ/2024-09-17-14-21-01/
     RDKit          3D

 22 24  0  0  0  0  0  0  0  0999 V2000
   -7.9040    3.9820   27.1177 C   0  0  2  0  0  0  0  0  0  0  0  0
   -9.0711    4.3164   27.0630 C   0  0  0  0  0  0  0  0  0  0  0  0
   -9.5294    5.4517   27.7215 C   0  0  0  0  0  0  0  0  0  0  0  0
   -7.4336    2.7132   26.5681 C   0  0  0  0  0  0  0  0  0  0  0  0
   -8.3353    1.8569   26.0442 C   0  0  0  0  0  0  0  0  0  0  0  0
   -9.6477    2.2853   25.9146 C   0  0  0  0  0  0  0  0  0  0  0  0
  -10.0346    3.4497   26.4483 C   0  0  2  0  0  0  0  0  0  0  0  0
   -7.8750    0.5509   25.5918 C   0  0  0  0  0  0  0  0  0  0  0  0
   -8.5994   -0.5063   25.7049 Cl  0  0  0  0  0  0  0  0  0  0  0  0
   -7.0916    4.8015   27.9208 N   0  0  0  0  0  0  0  0  0  0  0  0
   -7.8587    5.8288   28.2304 N   0  0  0  0  0  0  0  0  0  0  0  0
   -6.6383    0.5514   25.2008 O   0  0  0  0  0  0  0  0  0  0  0  0
  -11.4334    3.8837   26.1512 C   0  0  0  0  0  0  0  0  0  0  0  0
  -12.2667    2.9381   26.5451 C   0  0  0  0  0  0  0  0  0  0  0  0
  -12.3168    2.1826   27.3701 C   0  0  0  0  0  0  0  0  0  0  0  0
  -11.2865    2.2300   28.4743 C   0  0  0  0  0  0  0  0  0  0  0  0
  -13.3518    1.1349   27.7007 C   0  0  0  0  0  0  0  0  0  0  0  0
  -14.5068    1.3941   27.5770 C   0  0  0  0  0  0  0  0  0  0  0  0
  -15.5156    0.4573   27.7880 C   0  0  0  0  0  0  0  0  0  0  0  0
  -15.1569   -0.8192   28.2209 C   0  0  0  0  0  0  0  0  0  0  0  0
  -13.8408   -1.1449   28.4109 C   0  0  0  0  0  0  0  0  0  0  0  0
  -12.8625   -0.1839   28.2037 C   0  0  0  0  0  0  0  0  0  0  0  0
  1  2  1  0
  2  3  2  0
  1  4  1  1
  4  5  1  0
  5  6  1  0
  2  7  1  0
  6  7  1  0
  5  8  1  0
  8  9  1  0
  1 10  1  0
  3 11  1  0
 10 11  1  0
  8 12  2  0
  7 13  1  6
 13 14  1  0
 14 15  2  3
 15 16  1  0
 15 17  1  0
 17 18  2  0
 18 19  1  0
 19 20  2  0
 20 21  1  0
 21 22  2  0
 22 17  1  0
M  END
$$$$
