No_2156-complexes_sdf/6BKW-FPZ/2024-09-17-14-21-01/
     RDKit          3D

 14 15  0  0  0  0  0  0  0  0999 V2000
   -7.9040    3.9820   27.1177 C   0  0  0  0  0  0  0  0  0  0  0  0
   -7.8663    4.8694   27.9238 C   0  0  0  0  0  0  0  0  0  0  0  0
   -9.0491    3.8523   26.2542 C   0  0  0  0  0  0  0  0  0  0  0  0
   -8.7661    5.9491   27.9690 C   0  0  0  0  0  0  0  0  0  0  0  0
   -9.9295    4.8502   26.2323 C   0  0  0  0  0  0  0  0  0  0  0  0
   -9.8077    5.9288   27.0933 C   0  0  0  0  0  0  0  0  0  0  0  0
   -7.0120    2.8934   27.1747 N   0  0  0  0  0  0  0  0  0  0  0  0
   -7.1739    1.6450   27.5593 C   0  0  0  0  0  0  0  0  0  0  0  0
   -5.9987    0.8258   27.6170 C   0  0  0  0  0  0  0  0  0  0  0  0
   -5.9916   -0.5238   27.6940 C   0  0  0  0  0  0  0  0  0  0  0  0
   -4.8273   -1.2409   27.8312 C   0  0  0  0  0  0  0  0  0  0  0  0
   -4.5573    1.1497   27.7622 C   0  0  0  0  0  0  0  0  0  0  0  0
   -3.6619    0.4268   27.9269 C   0  0  0  0  0  0  0  0  0  0  0  0
   -3.6562   -0.8492   27.9971 C   0  0  0  0  0  0  0  0  0  0  0  0
  1  7  1  0
  7  8  1  0
  8  9  1  0
  9 10  2  0
 10 11  1  0
 11 14  2  0
 14 13  1  0
 13 12  2  0
 12  9  1  0
  1  2  2  0
  2  4  1  0
  4  6  2  0
  6  5  1  0
  5  3  2  0
  3  1  1  0
M  END
$$$$
