No_2241-complexes_sdf/6BKW-FPZ/2024-09-17-14-21-01/
     RDKit          3D

 22 24  0  0  0  0  0  0  0  0999 V2000
   -7.7129    4.2099   27.0854 C   0  0  0  0  0  0  0  0  0  0  0  0
   -8.2112    3.0637   26.9225 C   0  0  0  0  0  0  0  0  0  0  0  0
   -7.5138    1.9223   27.4249 C   0  0  0  0  0  0  0  0  0  0  0  0
   -8.5309    5.4147   26.8151 C   0  0  0  0  0  0  0  0  0  0  0  0
   -9.6817    5.2393   26.1100 C   0  0  0  0  0  0  0  0  0  0  0  0
  -10.1032    3.9957   25.8534 C   0  0  0  0  0  0  0  0  0  0  0  0
   -9.4035    2.8430   26.2573 C   0  0  0  0  0  0  0  0  0  0  0  0
   -7.9563    0.5637   27.2536 C   0  0  0  0  0  0  0  0  0  0  0  0
   -7.2253   -0.4662   27.6814 C   0  0  0  0  0  0  0  0  0  0  0  0
   -5.9425   -0.2690   28.2202 C   0  0  0  0  0  0  0  0  0  0  0  0
   -5.3912    1.0279   28.2455 C   0  0  0  0  0  0  0  0  0  0  0  0
   -6.0929    2.0584   27.8334 C   0  0  0  0  0  0  0  0  0  0  0  0
   -7.9808    6.7632   27.0938 C   0  0  0  0  0  0  0  0  0  0  0  0
   -7.0590    6.8263   27.9209 O   0  0  0  0  0  0  0  0  0  0  0  0
   -8.4855    7.8229   26.6407 O   0  0  0  0  0  0  0  0  0  0  0  0
   -5.1411   -1.4302   28.7174 C   0  0  0  0  0  0  0  0  0  0  0  0
   -4.1681   -1.5705   29.0665 C   0  0  0  0  0  0  0  0  0  0  0  0
   -3.3225   -0.2575   29.2126 C   0  0  0  0  0  0  0  0  0  0  0  0
   -3.9488    0.9952   28.7439 C   0  0  0  0  0  0  0  0  0  0  0  0
  -11.3723    3.8233   25.0761 C   0  0  0  0  0  0  0  0  0  0  0  0
  -12.5500    3.5675   25.6998 C   0  0  0  0  0  0  0  0  0  0  0  0
  -13.7373    3.4534   24.9847 C   0  0  0  0  0  0  0  0  0  0  0  0
  2  3  1  0
  4 13  1  0
 13 14  1  0
 13 15  2  0
  6 20  1  0
 20 21  2  3
 21 22  1  0
  3  8  2  0
  8  9  1  0
  9 10  2  0
 11 12  2  0
 12  3  1  0
  1  2  2  0
  2  7  1  0
  7  6  2  0
  6  5  1  0
  5  4  2  0
  4  1  1  0
 10 11  1  0
 11 19  1  0
 19 18  2  0
 18 17  1  0
 17 16  2  0
 16 10  1  0
M  END
$$$$
