No_2080-complexes_sdf/6BKW-FPZ/2024-09-17-14-21-01/
     RDKit          3D

 23 25  0  0  0  0  0  0  0  0999 V2000
   -7.7129    4.2099   27.0854 C   0  0  0  0  0  0  0  0  0  0  0  0
   -8.9133    4.4736   27.0998 C   0  0  0  0  0  0  0  0  0  0  0  0
   -9.7937    3.7368   26.2091 C   0  0  0  0  0  0  0  0  0  0  0  0
   -6.8266    5.0441   28.0594 C   0  0  0  0  0  0  0  0  0  0  0  0
   -9.6255    2.8033   25.8825 C   0  0  0  0  0  0  0  0  0  0  0  0
   -8.2901    2.1066   26.1879 C   0  0  0  0  0  0  0  0  0  0  0  0
   -7.4315    2.8366   26.9677 C   0  0  0  0  0  0  0  0  0  0  0  0
  -10.4987    1.8028   25.0703 C   0  0  0  0  0  0  0  0  0  0  0  0
  -11.4910    1.5102   25.0567 C   0  0  0  0  0  0  0  0  0  0  0  0
  -12.3086    2.1550   26.2054 C   0  0  0  0  0  0  0  0  0  0  0  0
  -12.0510    2.3604   27.3054 C   0  0  0  0  0  0  0  0  0  0  0  0
  -12.7228    2.6062   28.3911 C   0  0  0  0  0  0  0  0  0  0  0  0
  -14.0583    2.7605   28.4557 C   0  0  0  0  0  0  0  0  0  0  0  0
  -14.5841    2.5885   27.0936 C   0  0  0  0  0  0  0  0  0  0  0  0
  -13.8711    2.2356   26.0284 C   0  0  0  0  0  0  0  0  0  0  0  0
   -9.6096    1.2390   23.8346 C   0  0  1  0  0  0  0  0  0  0  0  0
   -9.2266   -0.0173   23.9004 C   0  0  0  0  0  0  0  0  0  0  0  0
   -9.4631    2.0646   22.7352 C   0  0  0  0  0  0  0  0  0  0  0  0
   -9.4304   -0.8859   24.7009 C   0  0  0  0  0  0  0  0  0  0  0  0
   -8.8899   -2.1797   24.6910 C   0  0  0  0  0  0  0  0  0  0  0  0
   -8.0440   -2.4720   23.6291 C   0  0  0  0  0  0  0  0  0  0  0  0
   -8.2112   -0.3897   22.8377 C   0  0  0  0  0  0  0  0  0  0  0  0
   -7.6642   -1.5668   22.7039 C   0  0  0  0  0  0  0  0  0  0  0  0
  1  4  1  0
  5  8  1  0
  8  9  2  3
  9 10  1  0
  8 16  1  0
 16 17  1  0
 16 18  1  6
 17 19  2  0
 19 20  1  0
 20 21  2  0
 21 23  1  0
 23 22  2  0
 22 17  1  0
 10 11  2  0
 11 12  1  0
 12 13  2  0
 13 14  1  0
 14 15  2  0
 15 10  1  0
  1  2  2  0
  2  3  1  0
  3  5  2  0
  5  6  1  0
  6  7  2  0
  7  1  1  0
M  END
$$$$
