No_2383-complexes_sdf/6BKW-FPZ/2024-09-17-14-21-01/
     RDKit          3D

 18 20  0  0  0  0  0  0  0  0999 V2000
   -7.9040    3.9820   27.1177 C   0  0  0  0  0  0  0  0  0  0  0  0
   -8.2057    2.8231   26.8733 C   0  0  0  0  0  0  0  0  0  0  0  0
   -8.7695    5.0740   26.7916 C   0  0  0  0  0  0  0  0  0  0  0  0
   -9.9618    4.7598   26.1630 C   0  0  0  0  0  0  0  0  0  0  0  0
   -9.4200    2.4524   26.2849 C   0  0  0  0  0  0  0  0  0  0  0  0
  -10.2590    3.4815   25.9250 C   0  0  0  0  0  0  0  0  0  0  0  0
   -8.3837    6.4702   27.0872 C   0  0  0  0  0  0  0  0  0  0  0  0
   -8.7307    7.3996   26.4620 O   0  0  0  0  0  0  0  0  0  0  0  0
   -7.3561    6.5296   27.9902 O   0  0  0  0  0  0  0  0  0  0  0  0
   -7.2778    1.6669   27.2863 C   0  0  0  0  0  0  0  0  0  0  0  0
   -6.1501    1.9685   27.8187 O   0  0  0  0  0  0  0  0  0  0  0  0
   -7.5195    0.4180   27.0267 N   0  0  0  0  0  0  0  0  0  0  0  0
   -6.6019   -0.6841   27.3843 C   0  0  0  0  0  0  0  0  0  0  0  0
   -7.1763   -1.7744   27.6318 C   0  0  0  0  0  0  0  0  0  0  0  0
   -8.2984   -1.9980   27.2581 C   0  0  0  0  0  0  0  0  0  0  0  0
   -9.2714   -1.0747   26.7921 C   0  0  0  0  0  0  0  0  0  0  0  0
   -8.8312    0.1243   26.8663 C   0  0  2  0  0  0  0  0  0  0  0  0
   -9.7247    1.0806   26.2408 C   0  0  0  0  0  0  0  0  0  0  0  0
  3  7  1  0
  7  8  2  0
  7  9  1  0
  2 10  1  0
 10 11  2  0
 10 12  1  0
 12 13  1  0
 13 14  1  0
 15 16  1  0
 12 17  1  0
 17 16  1  6
  5 18  1  0
 17 18  1  0
 14 15  1  0
  1  2  2  0
  2  5  1  0
  5  6  2  0
  6  4  1  0
  4  3  2  0
  3  1  1  0
M  END
$$$$
