No_2369-complexes_sdf/6BKW-FPZ/2024-09-17-14-21-01/
     RDKit          3D

 27 30  0  0  0  0  0  0  0  0999 V2000
   -7.9040    3.9820   27.1177 C   0  0  0  0  0  0  0  0  0  0  0  0
   -9.0711    4.3164   27.0630 C   0  0  0  0  0  0  0  0  0  0  0  0
   -9.5182    5.5541   27.5777 C   0  0  0  0  0  0  0  0  0  0  0  0
   -6.9424    4.7983   27.8424 C   0  0  0  0  0  0  0  0  0  0  0  0
   -7.3526    5.9739   28.3909 C   0  0  0  0  0  0  0  0  0  0  0  0
   -8.6479    6.3742   28.2169 C   0  0  0  0  0  0  0  0  0  0  0  0
  -10.0793    3.4689   26.3368 C   0  0  0  0  0  0  0  0  0  0  0  0
  -10.8066    3.4471   25.6317 C   0  0  0  0  0  0  0  0  0  0  0  0
  -11.5555    2.3860   24.9820 C   0  0  0  0  0  0  0  0  0  0  0  0
  -11.0845    1.4166   25.2056 C   0  0  0  0  0  0  0  0  0  0  0  0
   -9.8340    1.8602   26.3222 C   0  0  0  0  0  0  0  0  0  0  0  0
   -8.9534    1.0399   26.9501 C   0  0  0  0  0  0  0  0  0  0  0  0
   -8.0630    0.4412   26.2328 C   0  0  1  0  0  0  0  0  0  0  0  0
   -6.9689   -0.2169   26.9358 C   0  0  0  0  0  0  0  0  0  0  0  0
   -5.8055   -0.5202   26.4823 C   0  0  0  0  0  0  0  0  0  0  0  0
   -4.6991   -0.8095   27.3127 C   0  0  0  0  0  0  0  0  0  0  0  0
   -4.9153   -0.8851   28.7148 C   0  0  0  0  0  0  0  0  0  0  0  0
   -6.1564   -0.6494   29.2071 C   0  0  0  0  0  0  0  0  0  0  0  0
   -7.1513   -0.2152   28.3837 C   0  0  0  0  0  0  0  0  0  0  0  0
   -3.8546   -1.2569   29.4633 F   0  0  0  0  0  0  0  0  0  0  0  0
   -8.0745    0.2028   24.8450 C   0  0  0  0  0  0  0  0  0  0  0  0
   -8.7733   -0.7248   24.1681 N   0  0  0  0  0  0  0  0  0  0  0  0
   -9.1053   -0.6402   22.8973 C   0  0  0  0  0  0  0  0  0  0  0  0
   -9.9572   -1.5055   22.2526 C   0  0  0  0  0  0  0  0  0  0  0  0
   -9.2725   -1.8527   24.8040 C   0  0  0  0  0  0  0  0  0  0  0  0
  -10.1309   -2.7556   24.2615 C   0  0  0  0  0  0  0  0  0  0  0  0
  -10.4095   -2.5819   22.9052 C   0  0  0  0  0  0  0  0  0  0  0  0
  2  7  1  0
  7  8  2  0
  8  9  1  0
  9 10  2  0
  7 11  1  0
 10 11  1  0
 11 12  1  0
 13 12  1  1
 17 20  1  0
 13 21  1  0
 21 22  1  0
 22 23  1  0
 22 25  1  0
 24 27  1  0
 26 27  1  0
 13 14  1  0
 23 24  1  0
 26 25  1  0
 14 15  2  0
 15 16  1  0
 16 17  2  0
 17 18  1  0
 18 19  2  0
 19 14  1  0
  1  2  2  0
  2  3  1  0
  3  6  2  0
  6  5  1  0
  5  4  2  0
  4  1  1  0
M  END
$$$$
