No_2121-complexes_sdf/6BKW-FPZ/2024-09-17-14-21-01/
     RDKit          3D

 40 44  0  0  0  0  0  0  0  0999 V2000
   -7.9040    3.9820   27.1177 C   0  0  0  0  0  0  0  0  0  0  0  0
   -9.0711    4.3164   27.0630 C   0  0  0  0  0  0  0  0  0  0  0  0
   -9.5182    5.5541   27.5777 C   0  0  0  0  0  0  0  0  0  0  0  0
   -6.9424    4.7983   27.8424 C   0  0  0  0  0  0  0  0  0  0  0  0
   -7.3526    5.9739   28.3909 C   0  0  0  0  0  0  0  0  0  0  0  0
   -8.6479    6.3742   28.2169 C   0  0  0  0  0  0  0  0  0  0  0  0
  -10.0793    3.4689   26.3368 C   0  0  0  0  0  0  0  0  0  0  0  0
  -10.8066    3.4472   25.6317 C   0  0  0  0  0  0  0  0  0  0  0  0
  -11.5555    2.3860   24.9819 C   0  0  0  0  0  0  0  0  0  0  0  0
  -11.1719    1.1467   25.4068 C   0  0  0  0  0  0  0  0  0  0  0  0
   -9.8486    1.8142   26.5475 C   0  0  0  0  0  0  0  0  0  0  0  0
   -9.1025    0.9675   27.2023 C   0  0  0  0  0  0  0  0  0  0  0  0
   -9.4718   -0.3163   27.1313 C   0  0  0  0  0  0  0  0  0  0  0  0
  -10.7175   -0.3776   26.0870 C   0  0  2  0  0  0  0  0  0  0  0  0
  -11.9151    2.3631   23.6382 C   0  0  2  0  0  0  0  0  0  0  0  0
  -12.8550    3.3124   23.4086 N   0  0  0  0  0  0  0  0  0  0  0  0
  -13.5246    3.8567   24.3280 C   0  0  0  0  0  0  0  0  0  0  0  0
  -13.1200    3.7736   22.0161 C   0  0  0  0  0  0  0  0  0  0  0  0
   -9.0574   -1.4950   27.7199 C   0  0  0  0  0  0  0  0  0  0  0  0
   -9.8656   -2.1087   28.6506 C   0  0  0  0  0  0  0  0  0  0  0  0
   -9.3323   -3.2011   29.4301 C   0  0  0  0  0  0  0  0  0  0  0  0
   -7.9975   -3.5063   29.3096 C   0  0  0  0  0  0  0  0  0  0  0  0
   -7.1935   -2.8190   28.4415 C   0  0  0  0  0  0  0  0  0  0  0  0
   -7.6633   -1.7595   27.7249 C   0  0  0  0  0  0  0  0  0  0  0  0
  -12.4511    1.1141   23.1334 C   0  0  0  0  0  0  0  0  0  0  0  0
  -11.4587    0.2795   22.5310 C   0  0  0  0  0  0  0  0  0  0  0  0
  -10.2637    0.7659   22.3024 C   0  0  0  0  0  0  0  0  0  0  0  0
   -9.1592   -0.0931   21.9080 C   0  0  0  0  0  0  0  0  0  0  0  0
   -8.8989   -1.0199   22.6445 C   0  0  0  0  0  0  0  0  0  0  0  0
   -7.7861   -1.8404   22.3669 C   0  0  0  0  0  0  0  0  0  0  0  0
   -6.9740   -2.5028   23.2554 C   0  0  0  0  0  0  0  0  0  0  0  0
   -5.7660   -3.1226   23.0056 C   0  0  0  0  0  0  0  0  0  0  0  0
   -5.4155   -3.2585   21.6822 C   0  0  0  0  0  0  0  0  0  0  0  0
   -6.1369   -2.6483   20.6701 C   0  0  0  0  0  0  0  0  0  0  0  0
   -7.2724   -1.9169   21.0098 C   0  0  0  0  0  0  0  0  0  0  0  0
  -11.3767   -1.4572   25.6290 C   0  0  0  0  0  0  0  0  0  0  0  0
  -12.6720   -1.6564   25.8894 C   0  0  0  0  0  0  0  0  0  0  0  0
  -13.3143   -2.8033   25.3893 C   0  0  0  0  0  0  0  0  0  0  0  0
  -12.5694   -3.7196   24.6504 C   0  0  0  0  0  0  0  0  0  0  0  0
  -11.1935   -3.5573   24.4488 C   0  0  0  0  0  0  0  0  0  0  0  0
  2  7  1  0
  7  8  2  0
  8  9  1  0
  9 10  2  0
  7 11  1  0
 10 11  1  0
 11 12  1  0
 12 13  2  0
 10 14  1  0
 13 14  1  0
  9 15  1  0
 15 16  1  0
 16 17  1  0
 16 18  1  0
 13 19  1  0
 15 25  1  1
 25 26  1  0
 26 27  2  3
 27 28  1  0
 28 29  2  3
 29 30  1  0
 14 36  1  6
 36 37  2  3
 37 38  1  0
 38 39  2  3
 39 40  1  0
  1  2  2  0
  2  3  1  0
  3  6  2  0
  6  5  1  0
  5  4  2  0
  4  1  1  0
 30 31  2  0
 31 32  1  0
 32 33  2  0
 33 34  1  0
 34 35  2  0
 35 30  1  0
 19 20  2  0
 20 21  1  0
 21 22  2  0
 22 23  1  0
 23 24  2  0
 24 19  1  0
M  END
$$$$
