No_266-complexes_sdf/6BKW-FPZ/2024-09-17-14-21-01/
     RDKit          3D

 24 26  0  0  0  0  0  0  0  0999 V2000
   -7.7129    4.2099   27.0854 C   0  0  0  0  0  0  0  0  0  0  0  0
   -8.9133    4.4736   27.0998 C   0  0  0  0  0  0  0  0  0  0  0  0
   -9.7785    3.9136   27.0578 C   0  0  0  0  0  0  0  0  0  0  0  0
   -7.3514    2.8197   27.1958 C   0  0  0  0  0  0  0  0  0  0  0  0
   -8.4036    1.9410   27.1105 C   0  0  0  0  0  0  0  0  0  0  0  0
   -8.1818    0.5196   27.1646 C   0  0  0  0  0  0  0  0  0  0  0  0
   -9.7149    2.4244   27.0840 C   0  0  0  0  0  0  0  0  0  0  0  0
   -8.1658   -0.0893   26.1791 N   0  0  0  0  0  0  0  0  0  0  0  0
   -8.7777    0.1341   25.1123 C   0  0  0  0  0  0  0  0  0  0  0  0
   -9.9277    0.5597   25.0235 C   0  0  0  0  0  0  0  0  0  0  0  0
   -9.0706    6.4521   27.0880 P   0  0  0  0  0  0  0  0  0  0  0  0
   -7.6377    6.9434   27.0204 O   0  0  0  0  0  0  0  0  0  0  0  0
   -9.7079    6.7025   28.4388 O   0  0  0  0  0  0  0  0  0  0  0  0
   -9.6888    6.7298   25.8340 O   0  0  0  0  0  0  0  0  0  0  0  0
  -10.4289    0.7421   24.0589 C   0  0  0  0  0  0  0  0  0  0  0  0
   -9.7798    0.5098   22.7175 C   0  0  0  0  0  0  0  0  0  0  0  0
   -8.0405   -0.1939   23.8598 C   0  0  0  0  0  0  0  0  0  0  0  0
   -8.5503    0.0041   22.6855 C   0  0  0  0  0  0  0  0  0  0  0  0
   -7.2309   -1.3929   26.1893 C   0  0  0  0  0  0  0  0  0  0  0  0
   -7.3615   -2.1483   27.3202 C   0  0  0  0  0  0  0  0  0  0  0  0
   -6.5763   -3.1113   27.4345 C   0  0  0  0  0  0  0  0  0  0  0  0
   -5.5586   -3.4165   26.5280 C   0  0  0  0  0  0  0  0  0  0  0  0
   -5.4160   -2.6193   25.3972 C   0  0  0  0  0  0  0  0  0  0  0  0
   -6.2332   -1.5134   25.2746 C   0  0  0  0  0  0  0  0  0  0  0  0
  5  6  1  0
  6  8  1  0
  8  9  1  0
  2 11  1  0
 11 12  1  0
 11 13  1  0
 11 14  2  0
  8 19  1  0
  9 10  2  0
 10 15  1  0
 15 16  2  0
 16 18  1  0
 18 17  2  0
 17  9  1  0
  1  2  2  0
  2  3  1  0
  3  7  2  0
  7  5  1  0
  5  4  2  0
  4  1  1  0
 19 20  2  0
 20 21  1  0
 21 22  2  0
 22 23  1  0
 23 24  2  0
 24 19  1  0
M  END
$$$$
