No_2693-complexes_sdf/6BKW-FPZ/2024-09-17-14-21-01/
     RDKit          3D

 12 13  0  0  0  0  0  0  0  0999 V2000
   -7.7129    4.2099   27.0854 C   0  0  0  0  0  0  0  0  0  0  0  0
   -7.7814    5.1722   27.8972 C   0  0  0  0  0  0  0  0  0  0  0  0
   -7.3155    2.9700   27.6145 C   0  0  0  0  0  0  0  0  0  0  0  0
   -7.9010    1.7962   27.2023 C   0  0  0  0  0  0  0  0  0  0  0  0
   -8.9847    1.8780   26.3510 C   0  0  0  0  0  0  0  0  0  0  0  0
   -9.4383    3.0861   25.8930 C   0  0  0  0  0  0  0  0  0  0  0  0
   -8.9232    4.1639   26.3688 C   0  0  0  0  0  0  0  0  0  0  0  0
   -8.1781    6.3105   27.9004 N   0  0  0  0  0  0  0  0  0  0  0  0
   -9.1945    6.6270   26.9441 C   0  0  0  0  0  0  0  0  0  0  0  0
   -9.6136    5.4843   26.1677 C   0  0  0  0  0  0  0  0  0  0  0  0
   -7.2501    0.4907   27.5193 C   0  0  0  0  0  0  0  0  0  0  0  0
   -7.0940   -0.4834   26.7593 Cl  0  0  0  0  0  0  0  0  0  0  0  0
  4 11  1  0
 11 12  1  0
  1  2  2  0
  2  8  1  0
  8  9  2  0
  9 10  1  0
 10  7  2  0
  1  3  1  0
  3  4  2  0
  4  5  1  0
  5  6  2  0
  6  7  1  0
  7  1  1  0
M  END
$$$$
