No_2712-complexes_sdf/6BKW-FPZ/2024-09-17-14-21-01/
     RDKit          3D

 19 21  0  0  0  0  0  0  0  0999 V2000
   -7.9040    3.9820   27.1177 C   0  0  0  0  0  0  0  0  0  0  0  0
   -8.2057    2.8231   26.8733 C   0  0  0  0  0  0  0  0  0  0  0  0
   -8.7695    5.0740   26.7916 C   0  0  0  0  0  0  0  0  0  0  0  0
   -9.9618    4.7598   26.1630 C   0  0  0  0  0  0  0  0  0  0  0  0
   -7.3763    1.7038   27.3414 C   0  0  0  0  0  0  0  0  0  0  0  0
   -9.4562    2.5223   26.2873 C   0  0  0  0  0  0  0  0  0  0  0  0
   -9.7993    1.1090   26.0468 C   0  0  0  0  0  0  0  0  0  0  0  0
  -10.2922    3.4827   25.8806 C   0  0  0  0  0  0  0  0  0  0  0  0
   -7.6476    0.3569   27.1688 C   0  0  0  0  0  0  0  0  0  0  0  0
  -10.9680    0.7789   25.3715 C   0  0  0  0  0  0  0  0  0  0  0  0
   -8.8705    0.1105   26.5047 C   0  0  0  0  0  0  0  0  0  0  0  0
  -11.0863    0.9782   24.1464 C   0  0  0  0  0  0  0  0  0  0  0  0
  -10.1831    0.8886   23.2546 C   0  0  0  0  0  0  0  0  0  0  0  0
  -10.2481    1.1813   21.8024 C   0  0  0  0  0  0  0  0  0  0  0  0
   -9.1824    1.0811   20.9882 C   0  0  0  0  0  0  0  0  0  0  0  0
   -8.0416    0.4864   21.6134 C   0  0  0  0  0  0  0  0  0  0  0  0
   -7.8756    0.0754   22.9071 C   0  0  0  0  0  0  0  0  0  0  0  0
   -8.8800    0.2989   23.7275 C   0  0  0  0  0  0  0  0  0  0  0  0
   -9.7104   -0.8935   27.3644 C   0  0  0  0  0  0  0  0  0  0  0  0
  7 10  1  0
 10 12  1  0
 11 19  1  0
 12 13  1  0
 13 14  2  0
 14 15  1  0
 15 16  2  0
 16 17  1  0
 17 18  2  0
 18 13  1  0
  1  2  2  0
  6  8  2  0
  8  4  1  0
  4  3  2  0
  3  1  1  0
  2  5  1  0
  5  9  2  0
  9 11  1  0
 11  7  2  0
  7  6  1  0
  6  2  1  0
M  END
$$$$
