No_2834-complexes_sdf/6BKW-FPZ/2024-09-17-14-21-01/
     RDKit          3D

 23 25  0  0  0  0  0  0  0  0999 V2000
   -7.7129    4.2099   27.0854 C   0  0  0  0  0  0  0  0  0  0  0  0
   -8.2112    3.0637   26.9225 C   0  0  0  0  0  0  0  0  0  0  0  0
   -8.4224    5.2106   27.8516 C   0  0  0  0  0  0  0  0  0  0  0  0
   -7.4917    1.9381   26.3986 C   0  0  0  0  0  0  0  0  0  0  0  0
   -9.7695    5.0306   28.1322 C   0  0  0  0  0  0  0  0  0  0  0  0
   -9.5839    2.7162   27.3257 C   0  0  0  0  0  0  0  0  0  0  0  0
  -10.3355    3.7874   27.9011 C   0  0  0  0  0  0  0  0  0  0  0  0
   -7.5294    0.6724   27.1307 C   0  0  0  0  0  0  0  0  0  0  0  0
   -6.4016    0.2629   27.7825 C   0  0  0  0  0  0  0  0  0  0  0  0
   -6.3654   -0.9622   28.4534 C   0  0  0  0  0  0  0  0  0  0  0  0
   -7.5401   -1.6856   28.5308 C   0  0  0  0  0  0  0  0  0  0  0  0
   -8.5008   -0.2988   27.4110 C   0  0  0  0  0  0  0  0  0  0  0  0
   -8.6273   -1.3127   28.0494 C   0  0  0  0  0  0  0  0  0  0  0  0
  -11.7029    3.4893   28.4390 C   0  0  0  0  0  0  0  0  0  0  0  0
  -11.8624    2.3727   29.3000 C   0  0  0  0  0  0  0  0  0  0  0  0
  -13.1102    2.0723   29.8275 C   0  0  0  0  0  0  0  0  0  0  0  0
  -12.7079    4.3306   28.2028 C   0  0  0  0  0  0  0  0  0  0  0  0
  -13.9835    4.1232   28.7322 C   0  0  0  0  0  0  0  0  0  0  0  0
  -14.1573    3.0052   29.5541 C   0  0  0  0  0  0  0  0  0  0  0  0
   -5.0756    1.0432   27.7118 C   0  0  0  0  0  0  0  0  0  0  0  0
   -5.1283    2.2466   27.6934 F   0  0  0  0  0  0  0  0  0  0  0  0
   -4.4972    0.6672   26.5123 F   0  0  0  0  0  0  0  0  0  0  0  0
   -4.1828    0.5147   28.6856 F   0  0  0  0  0  0  0  0  0  0  0  0
  2  4  1  0
  4  8  1  0
  7 14  1  0
  9 20  1  0
 20 21  1  0
 20 22  1  0
 20 23  1  0
  1  2  2  0
  2  6  1  0
  6  7  2  0
  7  5  1  0
  5  3  2  0
  3  1  1  0
 14 15  2  0
 15 16  1  0
 16 19  2  0
 19 18  1  0
 18 17  2  0
 17 14  1  0
  8  9  2  0
  9 10  1  0
 10 11  2  0
 11 13  1  0
 13 12  2  0
 12  8  1  0
M  END
$$$$
