No_2648-complexes_sdf/6BKW-FPZ/2024-09-17-14-21-01/
     RDKit          3D

 27 30  0  0  0  0  0  0  0  0999 V2000
   -7.2496    3.8871   27.4508 C   0  0  0  0  0  0  0  0  0  0  0  0
   -7.6161    2.7143   27.1523 C   0  0  0  0  0  0  0  0  0  0  0  0
   -6.9719    1.5838   27.5324 C   0  0  0  0  0  0  0  0  0  0  0  0
   -7.4590    0.2827   27.2615 C   0  0  0  0  0  0  0  0  0  0  0  0
   -8.7521    2.5117   26.3068 C   0  0  0  0  0  0  0  0  0  0  0  0
   -9.2100    1.2391   25.9794 C   0  0  0  0  0  0  0  0  0  0  0  0
   -8.5306    0.1369   26.4831 C   0  0  0  0  0  0  0  0  0  0  0  0
   -8.0340    5.0588   27.1725 C   0  0  0  0  0  0  0  0  0  0  0  0
   -7.7001    6.3593   27.7770 C   0  0  0  0  0  0  0  0  0  0  0  0
   -9.1391    5.0224   26.3643 C   0  0  0  0  0  0  0  0  0  0  0  0
   -9.5087    3.6830   25.9202 C   0  0  0  0  0  0  0  0  0  0  0  0
   -8.4517    7.4003   27.4762 F   0  0  0  0  0  0  0  0  0  0  0  0
   -7.8094    6.2693   29.1283 F   0  0  0  0  0  0  0  0  0  0  0  0
   -6.4553    6.7068   27.5140 F   0  0  0  0  0  0  0  0  0  0  0  0
  -10.6347    3.6021   24.9989 C   0  0  0  0  0  0  0  0  0  0  0  0
  -10.5474    4.1376   23.7760 C   0  0  0  0  0  0  0  0  0  0  0  0
  -11.5995    4.0883   22.8344 C   0  0  0  0  0  0  0  0  0  0  0  0
  -12.7286    3.3446   23.1737 C   0  0  0  0  0  0  0  0  0  0  0  0
  -11.7945    2.8589   25.2432 C   0  0  0  0  0  0  0  0  0  0  0  0
  -12.8249    2.7915   24.4200 C   0  0  0  0  0  0  0  0  0  0  0  0
   -6.7135   -0.8834   27.7978 C   0  0  0  0  0  0  0  0  0  0  0  0
   -5.3729   -0.7427   28.1365 C   0  0  0  0  0  0  0  0  0  0  0  0
   -4.6102   -1.2534   28.6518 C   0  0  0  0  0  0  0  0  0  0  0  0
   -3.1669   -0.8691   28.9956 C   0  0  0  0  0  0  0  0  0  0  0  0
   -2.7682    0.3773   28.4674 C   0  0  0  0  0  0  0  0  0  0  0  0
   -3.6855    1.0916   27.7660 C   0  0  0  0  0  0  0  0  0  0  0  0
   -4.9087    0.7156   27.6192 C   0  0  0  0  0  0  0  0  0  0  0  0
  8  9  1  0
  9 12  1  0
  9 13  1  0
  9 14  1  0
 11 15  1  0
  4 21  1  0
 21 22  1  0
 15 16  2  0
 16 17  1  0
 17 18  2  0
 18 20  1  0
 20 19  2  0
 19 15  1  0
 22 23  2  0
 23 24  1  0
 24 25  2  0
 25 26  1  0
 26 27  2  0
 27 22  1  0
  1  2  2  0
  5 11  2  0
 11 10  1  0
 10  8  2  0
  8  1  1  0
  2  3  1  0
  3  4  2  0
  4  7  1  0
  7  6  2  0
  6  5  1  0
  5  2  1  0
M  END
$$$$
