No_2405-complexes_sdf/6BKW-FPZ/2024-09-17-14-21-01/
     RDKit          3D

 31 34  0  0  0  0  0  0  0  0999 V2000
   -7.9040    3.9820   27.1177 C   0  0  0  0  0  0  0  0  0  0  0  0
   -8.2057    2.8231   26.8733 C   0  0  0  0  0  0  0  0  0  0  0  0
   -7.0130    4.3706   28.1140 C   0  0  0  0  0  0  0  0  0  0  0  0
   -7.4093    1.7370   27.3857 C   0  0  0  0  0  0  0  0  0  0  0  0
   -6.1943    2.1490   28.0403 C   0  0  0  0  0  0  0  0  0  0  0  0
   -5.9708    3.4680   28.3199 C   0  0  0  0  0  0  0  0  0  0  0  0
   -8.9048    5.0960   26.7137 C   0  0  0  0  0  0  0  0  0  0  0  0
   -9.0277    6.2793   27.4494 C   0  0  0  0  0  0  0  0  0  0  0  0
   -9.5500    4.9301   25.4778 C   0  0  0  0  0  0  0  0  0  0  0  0
   -5.2308    1.0849   28.3991 C   0  0  0  0  0  0  0  0  0  0  0  0
   -3.9297    1.3777   28.7346 C   0  0  0  0  0  0  0  0  0  0  0  0
   -5.7127   -0.2733   28.4949 C   0  0  0  0  0  0  0  0  0  0  0  0
   -4.8074   -1.2530   28.9418 C   0  0  0  0  0  0  0  0  0  0  0  0
   -3.0557    0.3704   29.1767 C   0  0  0  0  0  0  0  0  0  0  0  0
   -3.5323   -0.9676   29.2513 C   0  0  0  0  0  0  0  0  0  0  0  0
  -10.4023    3.9270   25.1977 C   0  0  0  0  0  0  0  0  0  0  0  0
  -11.0646    3.9310   23.9307 C   0  0  0  0  0  0  0  0  0  0  0  0
  -10.7326    4.8439   23.0337 C   0  0  0  0  0  0  0  0  0  0  0  0
  -11.3289    4.7727   21.7633 C   0  0  0  0  0  0  0  0  0  0  0  0
  -12.2155    3.8161   21.4471 C   0  0  0  0  0  0  0  0  0  0  0  0
  -12.6008    2.9011   22.3772 C   0  0  0  0  0  0  0  0  0  0  0  0
  -11.9909    2.9264   23.6128 C   0  0  0  0  0  0  0  0  0  0  0  0
   -2.6094   -2.0289   29.7416 C   0  0  0  0  0  0  0  0  0  0  0  0
   -2.3680   -2.1247   30.8179 O   0  0  0  0  0  0  0  0  0  0  0  0
   -2.1251   -2.7543   28.7737 O   0  0  0  0  0  0  0  0  0  0  0  0
  -11.4941    3.7474   26.3126 C   0  0  0  0  0  0  0  0  0  0  0  0
  -11.7471    2.5386   26.8812 C   0  0  0  0  0  0  0  0  0  0  0  0
  -12.6325    2.4506   28.0030 C   0  0  0  0  0  0  0  0  0  0  0  0
  -13.2661    3.5912   28.5105 C   0  0  0  0  0  0  0  0  0  0  0  0
  -12.9862    4.8332   27.8661 C   0  0  0  0  0  0  0  0  0  0  0  0
  -12.1312    4.9188   26.8758 C   0  0  0  0  0  0  0  0  0  0  0  0
  1  7  1  0
  7  8  2  0
  7  9  1  0
  5 10  1  0
  9 16  2  3
 16 17  1  0
 15 23  1  0
 23 24  2  0
 23 25  1  0
 16 26  1  0
  1  2  2  0
  2  4  1  0
  4  5  2  0
  5  6  1  0
  6  3  2  0
  3  1  1  0
 10 11  2  0
 11 14  1  0
 14 15  2  0
 15 13  1  0
 13 12  2  0
 12 10  1  0
 17 18  2  0
 18 19  1  0
 19 20  2  0
 20 21  1  0
 21 22  2  0
 22 17  1  0
 26 27  2  0
 27 28  1  0
 28 29  2  0
 29 30  1  0
 30 31  2  0
 31 26  1  0
M  END
$$$$
