No_2433-complexes_sdf/6BKW-FPZ/2024-09-17-14-21-01/
     RDKit          3D

 21 23  0  0  0  0  0  0  0  0999 V2000
   -7.9040    3.9820   27.1177 C   0  0  0  0  0  0  0  0  0  0  0  0
   -7.8663    4.8694   27.9238 C   0  0  0  0  0  0  0  0  0  0  0  0
   -9.0501    3.8017   26.2617 C   0  0  0  0  0  0  0  0  0  0  0  0
  -10.0189    4.7608   26.3707 C   0  0  0  0  0  0  0  0  0  0  0  0
   -8.6973    5.9722   27.8968 C   0  0  0  0  0  0  0  0  0  0  0  0
   -9.8216    5.8946   27.1241 C   0  0  0  0  0  0  0  0  0  0  0  0
   -9.1437    2.6293   25.4175 C   0  0  0  0  0  0  0  0  0  0  0  0
   -8.6100    1.5009   25.7781 N   0  0  0  0  0  0  0  0  0  0  0  0
   -8.0411    1.3642   26.9343 C   0  0  0  0  0  0  0  0  0  0  0  0
   -7.2900    2.5408   27.4640 C   0  0  0  0  0  0  0  0  0  0  0  0
   -8.8599    0.3052   24.9981 C   0  0  0  0  0  0  0  0  0  0  0  0
  -10.0035   -0.2923   24.9996 C   0  0  1  0  0  0  0  0  0  0  0  0
  -10.9854   -0.0080   25.7145 C   0  0  0  0  0  0  0  0  0  0  0  0
  -11.0439    0.3004   26.7817 C   0  0  0  0  0  0  0  0  0  0  0  0
  -12.2153    0.5704   27.7497 C   0  0  0  0  0  0  0  0  0  0  0  0
  -13.3898    0.5086   27.1638 C   0  0  0  0  0  0  0  0  0  0  0  0
  -13.4617    0.1676   25.8095 C   0  0  0  0  0  0  0  0  0  0  0  0
  -12.3819   -0.0912   25.1155 C   0  0  0  0  0  0  0  0  0  0  0  0
   -7.7436    0.0276   24.3876 O   0  0  0  0  0  0  0  0  0  0  0  0
  -10.0840   -1.3676   23.9504 C   0  0  0  0  0  0  0  0  0  0  0  0
   -9.2488   -1.7018   23.2715 N   0  0  0  0  0  0  0  0  0  0  0  0
  3  7  1  0
  7  8  1  0
  8  9  1  0
  1 10  1  0
  9 10  1  0
  8 11  1  0
 11 12  1  0
 12 13  1  0
 11 19  2  0
 12 20  1  6
 20 21  1  0
 13 14  2  0
 14 15  1  0
 15 16  2  0
 16 17  1  0
 17 18  2  0
 18 13  1  0
  1  2  2  0
  2  5  1  0
  5  6  2  0
  6  4  1  0
  4  3  2  0
  3  1  1  0
M  END
$$$$
