No_2956-complexes_sdf/6BKW-FPZ/2024-09-17-14-21-01/
     RDKit          3D

 33 36  0  0  0  0  0  0  0  0999 V2000
   -7.7129    4.2099   27.0854 C   0  0  0  0  0  0  0  0  0  0  0  0
   -8.9133    4.4736   27.0998 C   0  0  0  0  0  0  0  0  0  0  0  0
   -9.7785    3.9136   27.0578 C   0  0  0  0  0  0  0  0  0  0  0  0
   -7.3514    2.8197   27.1958 C   0  0  0  0  0  0  0  0  0  0  0  0
   -8.4036    1.9410   27.1105 C   0  0  0  0  0  0  0  0  0  0  0  0
   -8.1818    0.5196   27.1646 C   0  0  0  0  0  0  0  0  0  0  0  0
   -9.7149    2.4244   27.0840 C   0  0  0  0  0  0  0  0  0  0  0  0
   -6.9273    0.0707   27.3409 C   0  0  0  0  0  0  0  0  0  0  0  0
   -5.8551    1.0365   27.5379 C   0  0  0  0  0  0  0  0  0  0  0  0
   -6.0664    2.3636   27.4113 N   0  0  0  0  0  0  0  0  0  0  0  0
   -4.5494    0.6515   27.7191 N   0  0  0  0  0  0  0  0  0  0  0  0
   -4.0597   -0.5139   27.7347 C   0  0  0  0  0  0  0  0  0  0  0  0
   -4.9646   -1.5435   27.5482 C   0  0  0  0  0  0  0  0  0  0  0  0
   -6.3667   -1.2908   27.3845 C   0  0  0  0  0  0  0  0  0  0  0  0
   -9.1114    6.1395   26.9956 C   0  0  0  0  0  0  0  0  0  0  0  0
   -9.6922    6.5703   28.0264 F   0  0  0  0  0  0  0  0  0  0  0  0
   -7.8438    6.7959   26.9628 F   0  0  0  0  0  0  0  0  0  0  0  0
   -9.5626    6.4549   25.7858 F   0  0  0  0  0  0  0  0  0  0  0  0
   -2.8255   -0.8896   28.0912 N   0  0  0  0  0  0  0  0  0  0  0  0
   -1.9816   -1.3981   27.5946 C   0  0  0  0  0  0  0  0  0  0  0  0
   -2.4584   -0.4168   29.5178 C   0  0  0  0  0  0  0  0  0  0  0  0
   -1.9577   -1.4603   30.3817 C   0  0  0  0  0  0  0  0  0  0  0  0
   -2.7863   -2.3425   30.6016 C   0  0  0  0  0  0  0  0  0  0  0  0
   -4.0792   -2.1413   30.9887 C   0  0  0  0  0  0  0  0  0  0  0  0
   -5.0050   -3.1896   31.3994 C   0  0  0  0  0  0  0  0  0  0  0  0
   -6.2728   -2.7945   31.8312 C   0  0  0  0  0  0  0  0  0  0  0  0
   -7.2514   -3.7109   32.0583 C   0  0  0  0  0  0  0  0  0  0  0  0
   -6.9638   -5.0473   31.9288 C   0  0  0  0  0  0  0  0  0  0  0  0
   -5.7370   -5.4227   31.5074 C   0  0  0  0  0  0  0  0  0  0  0  0
   -4.7753   -4.4990   31.1895 C   0  0  0  0  0  0  0  0  0  0  0  0
   -7.2970   -2.4158   27.2198 C   0  0  0  0  0  0  0  0  0  0  0  0
   -7.5347   -2.8921   26.0059 C   0  0  0  0  0  0  0  0  0  0  0  0
   -8.4796   -3.8663   25.7981 C   0  0  0  0  0  0  0  0  0  0  0  0
  2 15  1  0
 15 16  1  0
 15 17  1  0
 15 18  1  0
 12 19  1  0
 19 20  1  0
 19 21  1  0
 21 22  2  3
 22 23  1  0
 23 24  2  3
 24 25  1  0
 14 31  1  0
 31 32  2  3
 32 33  1  0
 25 26  2  0
 26 27  1  0
 27 28  2  0
 28 29  1  0
 29 30  2  0
 30 25  1  0
  9 11  1  0
 11 12  2  0
 12 13  1  0
 13 14  2  0
 14  8  1  0
  1  2  2  0
  2  3  1  0
  3  7  2  0
  7  5  1  0
  4  1  1  0
  4  5  2  0
  5  6  1  0
  6  8  2  0
  8  9  1  0
  9 10  2  0
 10  4  1  0
M  END
$$$$
