No_209-complexes_sdf/6BKW-FPZ/2024-09-17-14-21-01/
     RDKit          3D

 40 44  0  0  0  0  0  0  0  0999 V2000
   -7.9040    3.9820   27.1177 C   0  0  0  0  0  0  0  0  0  0  0  0
   -8.2057    2.8231   26.8733 C   0  0  0  0  0  0  0  0  0  0  0  0
   -8.7695    5.0740   26.7916 C   0  0  0  0  0  0  0  0  0  0  0  0
   -9.9618    4.7598   26.1630 C   0  0  0  0  0  0  0  0  0  0  0  0
   -9.4200    2.4524   26.2849 C   0  0  0  0  0  0  0  0  0  0  0  0
  -10.2590    3.4815   25.9250 C   0  0  0  0  0  0  0  0  0  0  0  0
   -8.3840    6.4693   27.0829 C   0  0  0  0  0  0  0  0  0  0  0  0
   -7.7493    6.7880   28.2320 C   0  0  0  0  0  0  0  0  0  0  0  0
   -8.7281    7.4896   26.1794 C   0  0  0  0  0  0  0  0  0  0  0  0
   -7.2861    1.6604   27.2858 C   0  0  0  0  0  0  0  0  0  0  0  0
   -5.7319    2.0876   28.1109 Br  0  0  0  0  0  0  0  0  0  0  0  0
   -7.5446    0.3053   27.0364 C   0  0  0  0  0  0  0  0  0  0  0  0
   -6.7634   -0.4056   26.3908 C   0  0  1  0  0  0  0  0  0  0  0  0
   -5.5164   -0.4600   26.6303 C   0  0  0  0  0  0  0  0  0  0  0  0
   -4.7682   -1.2531   25.6178 C   0  0  0  0  0  0  0  0  0  0  0  0
   -3.3447   -1.3502   25.6655 C   0  0  0  0  0  0  0  0  0  0  0  0
   -2.6802   -0.5943   26.6449 C   0  0  0  0  0  0  0  0  0  0  0  0
   -3.3495    0.1396   27.5595 C   0  0  0  0  0  0  0  0  0  0  0  0
   -4.7345    0.2399   27.5015 C   0  0  0  0  0  0  0  0  0  0  0  0
   -5.0232   -0.7113   28.8353 C   0  0  0  0  0  0  0  0  0  0  0  0
   -4.1472   -0.3236   30.0106 C   0  0  0  0  0  0  0  0  0  0  0  0
   -4.4596   -0.8418   31.2862 C   0  0  0  0  0  0  0  0  0  0  0  0
   -3.5657   -0.5023   32.3493 C   0  0  0  0  0  0  0  0  0  0  0  0
   -3.6916   -0.9642   33.6185 C   0  0  0  0  0  0  0  0  0  0  0  0
   -4.8751   -1.6486   33.9243 C   0  0  0  0  0  0  0  0  0  0  0  0
   -5.8658   -1.8252   32.9537 C   0  0  0  0  0  0  0  0  0  0  0  0
   -5.6437   -1.4192   31.6707 C   0  0  0  0  0  0  0  0  0  0  0  0
   -2.9640    0.3821   29.8212 C   0  0  0  0  0  0  0  0  0  0  0  0
   -2.5414    1.2638   28.0251 C   0  0  0  0  0  0  0  0  0  0  0  0
   -2.1984    1.0104   29.0520 N   0  0  0  0  0  0  0  0  0  0  0  0
   -7.1489   -2.4802   33.2541 C   0  0  0  0  0  0  0  0  0  0  0  0
   -8.0880   -2.2290   32.4901 O   0  0  0  0  0  0  0  0  0  0  0  0
   -7.3076   -3.2079   34.3635 N   0  0  0  0  0  0  0  0  0  0  0  0
   -8.5967   -3.7560   34.7316 C   0  0  0  0  0  0  0  0  0  0  0  0
   -7.4314   -1.2481   25.3726 C   0  0  0  0  0  0  0  0  0  0  0  0
   -7.5589   -0.7306   24.1320 C   0  0  0  0  0  0  0  0  0  0  0  0
   -8.1615   -1.3840   23.0430 C   0  0  0  0  0  0  0  0  0  0  0  0
   -8.4694   -2.5883   23.0654 C   0  0  0  0  0  0  0  0  0  0  0  0
   -7.5078   -2.6128   25.3656 C   0  0  0  0  0  0  0  0  0  0  0  0
   -8.1434   -3.3115   24.2915 C   0  0  0  0  0  0  0  0  0  0  0  0
  3  7  1  0
  7  8  2  0
  7  9  1  0
  2 10  1  0
 10 11  1  0
 10 12  1  0
 13 12  1  1
 13 14  1  0
 19 20  1  0
 20 21  2  0
 21 22  1  0
 21 28  1  0
 18 29  1  0
 28 30  1  0
 29 30  2  0
 26 31  1  0
 31 32  2  0
 31 33  1  0
 33 34  1  0
 13 35  1  0
 14 15  2  0
 15 16  1  0
 16 17  2  0
 17 18  1  0
 18 19  2  0
 19 14  1  0
 22 23  2  0
 23 24  1  0
 24 25  2  0
 25 26  1  0
 26 27  2  0
 27 22  1  0
  1  2  2  0
  2  5  1  0
  5  6  2  0
  6  4  1  0
  4  3  2  0
  3  1  1  0
 35 36  2  0
 36 37  1  0
 37 38  2  0
 38 40  1  0
 40 39  2  0
 39 35  1  0
M  END
$$$$
