No_2526-complexes_sdf/6BKW-FPZ/2024-09-17-14-21-01/
     RDKit          3D

 20 22  0  0  0  0  0  0  0  0999 V2000
   -7.9040    3.9820   27.1177 C   0  0  0  0  0  0  0  0  0  0  0  0
   -9.0711    4.3164   27.0630 C   0  0  0  0  0  0  0  0  0  0  0  0
   -9.5294    5.4517   27.7215 C   0  0  0  0  0  0  0  0  0  0  0  0
   -6.9328    4.7309   27.8881 C   0  0  0  0  0  0  0  0  0  0  0  0
   -7.3377    5.8421   28.5537 C   0  0  0  0  0  0  0  0  0  0  0  0
   -8.6411    6.2609   28.3972 C   0  0  0  0  0  0  0  0  0  0  0  0
  -10.0467    3.4917   26.2630 C   0  0  2  0  0  0  0  0  0  0  0  0
   -9.5472    2.5898   25.4413 C   0  0  0  0  0  0  0  0  0  0  0  0
   -8.7773    1.6347   25.9576 C   0  0  0  0  0  0  0  0  0  0  0  0
   -7.5449    1.7711   26.6974 C   0  0  0  0  0  0  0  0  0  0  0  0
   -7.2025    2.6183   27.0789 C   0  0  0  0  0  0  0  0  0  0  0  0
  -11.3112    4.0821   25.9613 C   0  0  0  0  0  0  0  0  0  0  0  0
  -12.2284    3.9770   27.0449 C   0  0  0  0  0  0  0  0  0  0  0  0
  -13.5982    4.2172   26.8610 C   0  0  0  0  0  0  0  0  0  0  0  0
  -14.0065    4.5062   25.5449 C   0  0  0  0  0  0  0  0  0  0  0  0
  -13.0879    4.5503   24.4836 C   0  0  0  0  0  0  0  0  0  0  0  0
  -11.7577    4.2855   24.7080 C   0  0  0  0  0  0  0  0  0  0  0  0
   -8.9421    0.2942   25.1379 C   0  0  0  0  0  0  0  0  0  0  0  0
   -9.4686   -0.6049   25.6303 O   0  0  0  0  0  0  0  0  0  0  0  0
   -8.5142    0.2365   23.9192 O   0  0  0  0  0  0  0  0  0  0  0  0
  2  7  1  0
  7  8  1  0
  8  9  1  0
  9 10  2  0
  1 11  1  0
 10 11  1  0
  7 12  1  6
  9 18  1  0
 18 19  2  0
 18 20  1  0
 12 13  2  0
 13 14  1  0
 14 15  2  0
 15 16  1  0
 16 17  2  0
 17 12  1  0
  1  2  1  0
  2  3  2  0
  3  6  1  0
  6  5  2  0
  5  4  1  0
  4  1  2  0
M  END
$$$$
