No_2324-complexes_sdf/6BKW-FPZ/2024-09-17-14-21-01/
     RDKit          3D

 15 15  0  0  0  0  0  0  0  0999 V2000
   -7.7129    4.2099   27.0854 C   0  0  0  0  0  0  0  0  0  0  0  0
   -8.9133    4.4736   27.0998 C   0  0  0  0  0  0  0  0  0  0  0  0
   -9.4643    5.5426   27.7628 C   0  0  0  0  0  0  0  0  0  0  0  0
   -6.8373    4.9942   27.9785 C   0  0  0  0  0  0  0  0  0  0  0  0
   -7.3717    6.0428   28.6744 C   0  0  0  0  0  0  0  0  0  0  0  0
   -8.6869    6.3937   28.5345 C   0  0  0  0  0  0  0  0  0  0  0  0
   -9.8029    3.6153   26.2122 C   0  0  0  0  0  0  0  0  0  0  0  0
   -9.9429    3.9817   24.8854 N   0  0  0  0  0  0  0  0  0  0  0  0
  -10.6927    3.5201   24.0973 C   0  0  2  0  0  0  0  0  0  0  0  0
  -10.7899    4.1101   22.7761 C   0  0  0  0  0  0  0  0  0  0  0  0
  -12.0430    2.6571   24.4905 Cl  0  0  0  0  0  0  0  0  0  0  0  0
   -9.8422    2.3880   26.5052 O   0  0  0  0  0  0  0  0  0  0  0  0
  -10.3747    3.4358   21.6600 C   0  0  0  0  0  0  0  0  0  0  0  0
  -10.3574    4.0674   20.3972 C   0  0  0  0  0  0  0  0  0  0  0  0
  -10.0337    3.3243   19.2890 C   0  0  0  0  0  0  0  0  0  0  0  0
  2  7  1  0
  7  8  1  0
  8  9  1  0
  9 10  1  0
  9 11  1  1
  7 12  2  0
 10 13  1  0
 13 14  2  3
 14 15  1  0
  1  2  2  0
  2  3  1  0
  3  6  2  0
  6  5  1  0
  5  4  2  0
  4  1  1  0
M  END
$$$$
