No_2727-complexes_sdf/6BKW-FPZ/2024-09-17-14-21-01/
     RDKit          3D

 15 16  0  0  0  0  0  0  0  0999 V2000
   -7.9040    3.9820   27.1177 C   0  0  0  0  0  0  0  0  0  0  0  0
   -9.0711    4.3164   27.0630 C   0  0  2  0  0  0  0  0  0  0  0  0
   -9.8698    3.9665   25.9495 C   0  0  0  0  0  0  0  0  0  0  0  0
   -6.9515    4.6878   28.0207 C   0  0  0  0  0  0  0  0  0  0  0  0
  -11.1591    3.4833   26.0876 C   0  0  0  0  0  0  0  0  0  0  0  0
  -11.8346    3.1513   24.9888 C   0  0  0  0  0  0  0  0  0  0  0  0
   -7.6113    5.6210   28.7650 N   0  0  0  0  0  0  0  0  0  0  0  0
  -11.2868    3.3460   23.6825 C   0  0  0  0  0  0  0  0  0  0  0  0
  -10.0528    3.9488   23.5280 C   0  0  0  0  0  0  0  0  0  0  0  0
   -9.3297    4.3335   24.6721 C   0  0  0  0  0  0  0  0  0  0  0  0
   -9.3510    5.4657   27.9934 C   0  0  0  0  0  0  0  0  0  0  0  0
  -12.0742    3.0799   22.4679 C   0  0  0  0  0  0  0  0  0  0  0  0
  -12.8527    3.8856   21.9811 F   0  0  0  0  0  0  0  0  0  0  0  0
  -12.5943    1.8394   22.6601 F   0  0  0  0  0  0  0  0  0  0  0  0
  -11.1534    2.8594   21.4181 F   0  0  0  0  0  0  0  0  0  0  0  0
  1  2  1  0
  2  3  1  6
  1  4  1  0
  4  7  1  0
  2 11  1  0
  7 11  1  0
  8 12  1  0
 12 13  1  0
 12 14  1  0
 12 15  1  0
  3  5  2  0
  5  6  1  0
  6  8  2  0
  8  9  1  0
  9 10  2  0
 10  3  1  0
M  END
$$$$
