No_214-complexes_sdf/6BKW-FPZ/2024-09-17-14-21-01/
     RDKit          3D

 26 29  0  0  0  0  0  0  0  0999 V2000
   -7.7129    4.2099   27.0854 C   0  0  0  0  0  0  0  0  0  0  0  0
   -8.9133    4.4736   27.0998 C   0  0  0  0  0  0  0  0  0  0  0  0
   -9.7135    3.9633   26.0300 C   0  0  0  0  0  0  0  0  0  0  0  0
   -7.1708    2.9509   26.6517 C   0  0  0  0  0  0  0  0  0  0  0  0
   -8.1422    2.1350   26.0104 C   0  0  0  0  0  0  0  0  0  0  0  0
   -9.3363    2.7131   25.6563 C   0  0  0  0  0  0  0  0  0  0  0  0
   -9.2657    5.9651   27.4012 C   0  0  0  0  0  0  0  0  0  0  0  0
   -7.7451    0.7860   25.6444 C   0  0  0  0  0  0  0  0  0  0  0  0
   -8.2041   -0.0116   26.1786 N   0  0  0  0  0  0  0  0  0  0  0  0
   -8.9958   -0.0760   27.0728 C   0  0  0  0  0  0  0  0  0  0  0  0
   -9.8970    0.2866   27.4453 C   0  0  0  0  0  0  0  0  0  0  0  0
  -10.7746   -0.1827   28.6024 C   0  0  0  0  0  0  0  0  0  0  0  0
  -10.3653   -1.3406   29.1267 C   0  0  0  0  0  0  0  0  0  0  0  0
   -8.6992   -1.5219   27.9076 C   0  0  0  0  0  0  0  0  0  0  0  0
   -9.3958   -1.9713   28.8106 C   0  0  0  0  0  0  0  0  0  0  0  0
   -7.8990   -1.3999   25.3833 C   0  0  1  0  0  0  0  0  0  0  0  0
   -9.0020   -1.8967   24.6668 C   0  0  0  0  0  0  0  0  0  0  0  0
   -9.9634   -1.3809   24.2979 C   0  0  0  0  0  0  0  0  0  0  0  0
  -10.8941   -1.5902   23.7323 C   0  0  0  0  0  0  0  0  0  0  0  0
  -10.9396   -2.9965   23.3082 C   0  0  0  0  0  0  0  0  0  0  0  0
   -9.8815   -3.7651   23.5568 C   0  0  0  0  0  0  0  0  0  0  0  0
   -8.8358   -3.2705   24.2890 C   0  0  0  0  0  0  0  0  0  0  0  0
   -8.3814    7.0391   27.1611 C   0  0  0  0  0  0  0  0  0  0  0  0
   -7.0044    6.7453   27.1012 C   0  0  0  0  0  0  0  0  0  0  0  0
   -6.6159    5.3296   27.1776 C   0  0  0  0  0  0  0  0  0  0  0  0
   -6.3984   -1.2783   24.4737 Cl  0  0  0  0  0  0  0  0  0  0  0  0
  5  8  1  0
  8  9  1  0
  9 10  1  0
  9 16  1  0
 16 17  1  0
 16 26  1  6
 17 18  2  0
 18 19  1  0
 19 20  2  0
 20 21  1  0
 21 22  2  0
 22 17  1  0
  2  7  1  0
  7 23  2  0
 23 24  1  0
 24 25  2  0
 25  1  1  0
  1  2  1  0
  2  3  2  0
  3  6  1  0
  6  5  2  0
  5  4  1  0
  4  1  2  0
 10 11  2  0
 11 12  1  0
 12 13  2  0
 13 15  1  0
 15 14  2  0
 14 10  1  0
M  END
$$$$
