No_2809-complexes_sdf/6BKW-FPZ/2024-09-17-14-21-01/
     RDKit          3D

 16 17  0  0  0  0  0  0  0  0999 V2000
   -7.7129    4.2099   27.0854 C   0  0  0  0  0  0  0  0  0  0  0  0
   -8.9133    4.4736   27.0998 C   0  0  0  0  0  0  0  0  0  0  0  0
   -9.4643    5.5426   27.7628 C   0  0  0  0  0  0  0  0  0  0  0  0
   -7.2009    2.9448   26.6134 C   0  0  0  0  0  0  0  0  0  0  0  0
   -6.1602    2.3096   27.4083 C   0  0  0  0  0  0  0  0  0  0  0  0
   -5.8295    1.0200   27.2635 C   0  0  0  0  0  0  0  0  0  0  0  0
   -6.7067    0.1866   26.6098 C   0  0  0  0  0  0  0  0  0  0  0  0
   -8.0815    1.9195   26.1938 C   0  0  0  0  0  0  0  0  0  0  0  0
   -7.8574    0.6812   26.1030 C   0  0  0  0  0  0  0  0  0  0  0  0
   -9.8774    3.7346   26.2407 C   0  0  0  0  0  0  0  0  0  0  0  0
   -9.4964    2.4152   25.8840 C   0  0  1  0  0  0  0  0  0  0  0  0
   -4.5512    0.5415   27.8911 C   0  0  0  0  0  0  0  0  0  0  0  0
   -3.9081    1.0515   28.7515 O   0  0  0  0  0  0  0  0  0  0  0  0
   -4.0790   -0.5956   27.3741 O   0  0  0  0  0  0  0  0  0  0  0  0
  -10.3584    1.6931   25.0279 C   0  0  0  0  0  0  0  0  0  0  0  0
  -11.1378    0.7447   25.5477 C   0  0  0  0  0  0  0  0  0  0  0  0
  1  2  1  0
  2  3  2  0
  1  4  1  0
  2 10  1  0
  8 11  1  0
 10 11  1  0
  6 12  1  0
 12 13  1  0
 12 14  2  0
 11 15  1  6
 15 16  2  0
  4  5  2  0
  5  6  1  0
  6  7  2  0
  7  9  1  0
  9  8  2  0
  8  4  1  0
M  END
$$$$
