No_2198-complexes_sdf/6BKW-FPZ/2024-09-17-14-21-01/
     RDKit          3D

 20 20  0  0  0  0  0  0  0  0999 V2000
   -7.7129    4.2099   27.0854 C   0  0  0  0  0  0  0  0  0  0  0  0
   -8.9133    4.4736   27.0998 C   0  0  0  0  0  0  0  0  0  0  0  0
   -9.7937    3.7367   26.2091 C   0  0  0  0  0  0  0  0  0  0  0  0
   -7.2496    2.8647   26.8496 C   0  0  0  0  0  0  0  0  0  0  0  0
   -8.1891    1.9790   26.3454 C   0  0  0  0  0  0  0  0  0  0  0  0
   -9.4252    2.4603   26.0121 C   0  0  0  0  0  0  0  0  0  0  0  0
   -9.3121    5.9663   27.2474 C   0  0  0  0  0  0  0  0  0  0  0  0
   -7.7466    0.5946   26.1401 C   0  0  0  0  0  0  0  0  0  0  0  0
   -8.4397   -0.3639   26.5768 O   0  0  0  0  0  0  0  0  0  0  0  0
   -6.5078    0.3458   26.0637 O   0  0  0  0  0  0  0  0  0  0  0  0
   -8.3944    6.4456   28.0083 F   0  0  0  0  0  0  0  0  0  0  0  0
  -10.3947    5.9560   28.1430 F   0  0  0  0  0  0  0  0  0  0  0  0
   -9.4662    6.6342   26.2157 F   0  0  0  0  0  0  0  0  0  0  0  0
   -6.1241   -0.9270   25.5849 C   0  0  0  0  0  0  0  0  0  0  0  0
   -4.8591   -1.2990   26.0121 C   0  0  0  0  0  0  0  0  0  0  0  0
   -4.0225   -0.4691   26.1455 O   0  0  0  0  0  0  0  0  0  0  0  0
   -3.2962   -0.3293   27.4310 C   0  0  0  0  0  0  0  0  0  0  0  0
   -4.0943   -0.3017   28.5753 C   0  0  0  0  0  0  0  0  0  0  0  0
   -3.5762    0.1185   29.7488 C   0  0  0  0  0  0  0  0  0  0  0  0
   -5.4731   -0.6111   28.4531 C   0  0  0  0  0  0  0  0  0  0  0  0
  2  7  1  0
  5  8  1  0
  8  9  2  0
  8 10  1  0
  7 11  1  0
  7 12  1  0
  7 13  1  0
 10 14  1  0
 14 15  1  0
 15 16  1  0
 16 17  1  0
 17 18  1  0
 18 19  2  0
 18 20  1  0
  1  2  2  0
  2  3  1  0
  3  6  2  0
  6  5  1  0
  5  4  2  0
  4  1  1  0
M  END
$$$$
