No_2376-complexes_sdf/6BKW-FPZ/2024-09-17-14-21-01/
     RDKit          3D

 24 26  0  0  0  0  0  0  0  0999 V2000
   -7.7129    4.2099   27.0854 C   0  0  0  0  0  0  0  0  0  0  0  0
   -7.7814    5.1722   27.8972 C   0  0  0  0  0  0  0  0  0  0  0  0
   -8.8998    3.8713   26.3707 C   0  0  0  0  0  0  0  0  0  0  0  0
   -9.1401    2.5906   25.9433 C   0  0  0  0  0  0  0  0  0  0  0  0
   -8.7502    6.2483   27.7275 C   0  0  0  0  0  0  0  0  0  0  0  0
  -10.0339    2.3357   24.9097 C   0  0  0  0  0  0  0  0  0  0  0  0
  -10.1322    1.1208   24.3312 C   0  0  0  0  0  0  0  0  0  0  0  0
   -9.9080    5.9448   27.0118 C   0  0  0  0  0  0  0  0  0  0  0  0
   -9.9909    4.7370   26.3288 C   0  0  0  0  0  0  0  0  0  0  0  0
   -8.3873    1.4837   26.3849 C   0  0  0  0  0  0  0  0  0  0  0  0
   -8.5046    0.2004   25.9561 C   0  0  0  0  0  0  0  0  0  0  0  0
   -9.3994    0.0174   24.9022 C   0  0  0  0  0  0  0  0  0  0  0  0
   -7.7860   -0.9374   26.5168 C   0  0  0  0  0  0  0  0  0  0  0  0
   -8.3910   -1.6879   27.4061 C   0  0  0  0  0  0  0  0  0  0  0  0
   -7.6876   -2.4548   28.2810 C   0  0  0  0  0  0  0  0  0  0  0  0
   -6.2826   -2.5301   28.1641 C   0  0  0  0  0  0  0  0  0  0  0  0
   -6.3370   -0.8687   26.3889 C   0  0  0  0  0  0  0  0  0  0  0  0
   -5.5956   -1.6887   27.2675 C   0  0  0  0  0  0  0  0  0  0  0  0
   -6.6757    5.6242   28.6071 O   0  0  0  0  0  0  0  0  0  0  0  0
  -11.0369    0.8671   23.2536 C   0  0  0  0  0  0  0  0  0  0  0  0
  -11.0903    1.6267   22.5771 Br  0  0  0  0  0  0  0  0  0  0  0  0
   -9.8336   -1.6298   27.6627 C   0  0  0  0  0  0  0  0  0  0  0  0
  -10.4108   -2.4345   28.6138 C   0  0  0  0  0  0  0  0  0  0  0  0
   -9.6263   -3.2830   29.3978 C   0  0  0  0  0  0  0  0  0  0  0  0
  3  4  1  0
 11 13  1  0
  2 19  1  0
  7 20  1  0
 20 21  1  0
 14 22  1  0
 22 23  2  3
 23 24  1  0
  4  6  2  0
  6  7  1  0
  7 12  2  0
 12 11  1  0
 11 10  2  0
 10  4  1  0
  1  2  2  0
  2  5  1  0
  5  8  2  0
  8  9  1  0
  9  3  2  0
  3  1  1  0
 13 14  2  0
 14 15  1  0
 15 16  2  0
 16 18  1  0
 18 17  2  0
 17 13  1  0
M  END
$$$$
