No_2639-complexes_sdf/6BKW-FPZ/2024-09-17-14-21-01/
     RDKit          3D

 12 12  0  0  0  0  0  0  0  0999 V2000
   -7.9040    3.9820   27.1177 C   0  0  0  0  0  0  0  0  0  0  0  0
   -7.8663    4.8694   27.9238 C   0  0  0  0  0  0  0  0  0  0  0  0
   -7.4547    2.7080   27.4594 C   0  0  0  0  0  0  0  0  0  0  0  0
   -8.0927    6.2909   27.5184 C   0  0  0  0  0  0  0  0  0  0  0  0
   -8.9150    6.5640   26.4331 C   0  0  0  0  0  0  0  0  0  0  0  0
   -7.3743    1.4980   26.9652 C   0  0  0  0  0  0  0  0  0  0  0  0
   -8.3812    1.2674   25.9721 C   0  0  0  0  0  0  0  0  0  0  0  0
   -8.4759    0.0435   25.2969 C   0  0  0  0  0  0  0  0  0  0  0  0
   -9.1900    5.3953   25.6247 C   0  0  0  0  0  0  0  0  0  0  0  0
   -8.7236    4.0816   25.9257 C   0  0  0  0  0  0  0  0  0  0  0  0
   -9.0474    2.9852   25.1989 N   0  0  0  0  0  0  0  0  0  0  0  0
   -9.7195    2.3475   24.2286 C   0  0  0  0  0  0  0  0  0  0  0  0
  1  3  1  0
  3  6  2  3
  6  7  1  0
  7  8  2  0
 10 11  1  0
 11 12  1  0
  1  2  2  0
  2  4  1  0
  4  5  2  0
  5  9  1  0
  9 10  2  0
 10  1  1  0
M  END
$$$$
