No_2691-complexes_sdf/6BKW-FPZ/2024-09-17-14-21-01/
     RDKit          3D

 16 17  0  0  0  0  0  0  0  0999 V2000
   -7.9040    3.9820   27.1177 C   0  0  0  0  0  0  0  0  0  0  0  0
   -9.0711    4.3164   27.0630 C   0  0  0  0  0  0  0  0  0  0  0  0
   -9.9692    3.7224   26.1073 C   0  0  0  0  0  0  0  0  0  0  0  0
   -6.9787    4.6761   28.1003 C   0  0  0  0  0  0  0  0  0  0  0  0
   -9.4538    2.6801   25.3673 C   0  0  0  0  0  0  0  0  0  0  0  0
   -8.1927    2.1957   25.6621 C   0  0  0  0  0  0  0  0  0  0  0  0
   -7.4333    2.8255   26.6299 C   0  0  0  0  0  0  0  0  0  0  0  0
  -10.1846    1.8701   24.3857 C   0  0  0  0  0  0  0  0  0  0  0  0
  -10.7241    2.5818   23.3384 C   0  0  0  0  0  0  0  0  0  0  0  0
  -11.1094    3.7834   23.3751 C   0  0  0  0  0  0  0  0  0  0  0  0
  -11.5980    4.5739   22.2315 C   0  0  0  0  0  0  0  0  0  0  0  0
  -11.6039    3.9091   21.0272 C   0  0  0  0  0  0  0  0  0  0  0  0
  -10.7460    2.0024   22.0811 C   0  0  0  0  0  0  0  0  0  0  0  0
  -11.1858    2.6324   20.9114 C   0  0  0  0  0  0  0  0  0  0  0  0
  -10.3685    0.5058   24.5282 C   0  0  0  0  0  0  0  0  0  0  0  0
  -11.6491    0.1152   24.9825 C   0  0  0  0  0  0  0  0  0  0  0  0
  1  4  1  0
  5  8  1  0
  8  9  1  0
  8 15  1  0
 15 16  1  0
  9 10  2  0
 10 11  1  0
 11 12  2  0
 12 14  1  0
 14 13  2  0
 13  9  1  0
  1  2  2  0
  2  3  1  0
  3  5  2  0
  5  6  1  0
  6  7  2  0
  7  1  1  0
M  END
$$$$
