No_2204-complexes_sdf/6BKW-FPZ/2024-09-17-14-21-01/
     RDKit          3D

 30 33  0  0  0  0  0  0  0  0999 V2000
   -7.9040    3.9820   27.1177 C   0  0  0  0  0  0  0  0  0  0  0  0
   -9.0711    4.3164   27.0630 C   0  0  0  0  0  0  0  0  0  0  0  0
   -9.5294    5.4517   27.7215 C   0  0  0  0  0  0  0  0  0  0  0  0
   -7.2203    4.1641   28.0363 C   0  0  0  0  0  0  0  0  0  0  0  0
   -7.3859    5.4785   28.7386 C   0  0  0  0  0  0  0  0  0  0  0  0
   -8.6109    6.0375   28.6008 C   0  0  0  0  0  0  0  0  0  0  0  0
  -10.0694    3.7729   25.9908 C   0  0  0  0  0  0  0  0  0  0  0  0
   -9.6211    3.3529   24.9117 C   0  0  0  0  0  0  0  0  0  0  0  0
  -10.4245    2.8303   23.8535 C   0  0  0  0  0  0  0  0  0  0  0  0
   -9.8740    2.2755   22.6821 C   0  0  0  0  0  0  0  0  0  0  0  0
  -11.8447    2.9861   24.0179 C   0  0  0  0  0  0  0  0  0  0  0  0
  -12.3192    3.5873   25.2115 C   0  0  0  0  0  0  0  0  0  0  0  0
  -11.4394    4.0677   26.1880 C   0  0  0  0  0  0  0  0  0  0  0  0
   -5.4692    3.5793   28.0349 P   0  0  2  0  0  0  0  0  0  0  0  0
   -4.5065    4.2426   27.7724 O   0  0  0  0  0  0  0  0  0  0  0  0
   -5.6054    2.0744   28.0070 O   0  0  0  0  0  0  0  0  0  0  0  0
   -5.0811    3.3887   29.0262 O   0  0  0  0  0  0  0  0  0  0  0  0
   -4.4058    2.3356   29.5763 C   0  0  2  0  0  0  0  0  0  0  0  0
   -5.5023    1.2663   27.0446 C   0  0  0  0  0  0  0  0  0  0  0  0
   -4.0565    0.9296   29.2144 C   0  0  0  0  0  0  0  0  0  0  0  0
   -3.9416    2.2452   30.7488 O   0  0  0  0  0  0  0  0  0  0  0  0
   -4.3952    0.2832   28.0501 C   0  0  0  0  0  0  0  0  0  0  0  0
   -3.7552    1.0422   31.4121 C   0  0  0  0  0  0  0  0  0  0  0  0
   -3.5601    0.1535   30.2717 C   0  0  0  0  0  0  0  0  0  0  0  0
   -3.0537   -1.1464   30.2463 C   0  0  0  0  0  0  0  0  0  0  0  0
   -3.3085   -1.8693   29.4471 O   0  0  0  0  0  0  0  0  0  0  0  0
   -2.0047   -1.3006   31.0839 N   0  0  0  0  0  0  0  0  0  0  0  0
  -10.2461    2.6809   21.4634 C   0  0  0  0  0  0  0  0  0  0  0  0
  -10.8621    3.8533   21.2727 N   0  0  0  0  0  0  0  0  0  0  0  0
   -1.2620   -2.5401   31.2027 C   0  0  0  0  0  0  0  0  0  0  0  0
  2  7  1  0
 14  4  1  1
 14 15  2  0
 14 16  1  0
 14 17  1  0
 18 17  1  1
 16 19  1  0
 18 20  1  0
 18 21  1  0
 19 22  1  0
 20 22  2  0
 21 23  1  0
 20 24  1  0
 23 24  1  0
 24 25  1  0
 25 26  2  0
 25 27  1  0
 10 28  1  0
 28 29  1  0
 27 30  1  0
 10  9  1  0
  7  8  2  0
  8  9  1  0
  9 11  2  0
 11 12  1  0
 12 13  2  0
 13  7  1  0
  1  2  2  0
  2  3  1  0
  3  6  2  0
  6  5  1  0
  5  4  2  0
  4  1  1  0
M  END
$$$$
