No_2743-complexes_sdf/6BKW-FPZ/2024-09-17-14-21-01/
     RDKit          3D

 40 45  0  0  0  0  0  0  0  0999 V2000
   -7.2496    3.8871   27.4508 C   0  0  0  0  0  0  0  0  0  0  0  0
   -7.6161    2.7143   27.1523 C   0  0  0  0  0  0  0  0  0  0  0  0
   -6.9719    1.5838   27.5324 C   0  0  0  0  0  0  0  0  0  0  0  0
   -7.4590    0.2827   27.2615 C   0  0  0  0  0  0  0  0  0  0  0  0
   -8.7521    2.5117   26.3068 C   0  0  0  0  0  0  0  0  0  0  0  0
   -9.2100    1.2391   25.9794 C   0  0  0  0  0  0  0  0  0  0  0  0
   -8.5306    0.1369   26.4831 C   0  0  0  0  0  0  0  0  0  0  0  0
   -8.0439    5.0662   27.1889 C   0  0  0  0  0  0  0  0  0  0  0  0
   -9.1551    5.0110   26.3348 C   0  0  0  0  0  0  0  0  0  0  0  0
   -9.5608    3.6659   25.9189 C   0  0  0  0  0  0  0  0  0  0  0  0
   -7.6072    6.4057   27.6831 C   0  0  0  0  0  0  0  0  0  0  0  0
   -6.7242   -0.8844   27.8467 C   0  0  0  0  0  0  0  0  0  0  0  0
   -5.4037   -0.7653   28.1656 C   0  0  0  0  0  0  0  0  0  0  0  0
   -4.6990    0.4513   27.8791 C   0  0  0  0  0  0  0  0  0  0  0  0
   -5.4948    1.6691   27.9119 C   0  0  0  0  0  0  0  0  0  0  0  0
   -3.2812    0.6843   28.3074 C   0  0  0  0  0  0  0  0  0  0  0  0
   -2.3495    0.1498   27.4364 C   0  0  0  0  0  0  0  0  0  0  0  0
   -1.6357   -0.9513   27.8653 C   0  0  0  0  0  0  0  0  0  0  0  0
  -10.6704    3.6051   25.0210 C   0  0  0  0  0  0  0  0  0  0  0  0
  -11.9190    3.4965   25.5449 C   0  0  0  0  0  0  0  0  0  0  0  0
  -10.5006    3.6600   23.6343 C   0  0  0  0  0  0  0  0  0  0  0  0
  -11.4583    3.6608   22.7254 C   0  0  0  0  0  0  0  0  0  0  0  0
  -13.0359    3.5435   24.6634 C   0  0  0  0  0  0  0  0  0  0  0  0
  -12.8164    3.6824   23.2819 C   0  0  0  0  0  0  0  0  0  0  0  0
   -2.2332    0.7601   26.1637 C   0  0  0  0  0  0  0  0  0  0  0  0
   -8.3263    7.4760   27.2833 N   0  0  0  0  0  0  0  0  0  0  0  0
   -9.1590   -1.1988   26.2713 C   0  0  0  0  0  0  0  0  0  0  0  0
   -8.7172   -1.9092   25.2043 C   0  0  0  0  0  0  0  0  0  0  0  0
   -8.1340   -1.4092   24.1961 C   0  0  0  0  0  0  0  0  0  0  0  0
   -7.6904   -2.1527   23.0289 C   0  0  0  0  0  0  0  0  0  0  0  0
   -7.9891   -3.4203   22.9565 C   0  0  0  0  0  0  0  0  0  0  0  0
   -8.6878   -3.9999   24.0086 C   0  0  0  0  0  0  0  0  0  0  0  0
   -9.0369   -3.3225   25.1139 C   0  0  0  0  0  0  0  0  0  0  0  0
  -10.0223   -1.5857   27.1146 O   0  0  0  0  0  0  0  0  0  0  0  0
   -0.9482   -0.8633   28.9052 C   0  0  0  0  0  0  0  0  0  0  0  0
   -0.8679   -1.8032   29.6952 C   0  0  0  0  0  0  0  0  0  0  0  0
   -0.9973   -3.1012   29.2609 C   0  0  0  0  0  0  0  0  0  0  0  0
   -1.5722   -3.2588   27.9903 C   0  0  0  0  0  0  0  0  0  0  0  0
   -2.2077   -2.1505   27.5089 C   0  0  0  0  0  0  0  0  0  0  0  0
   -2.8498   -2.2970   26.1760 C   0  0  0  0  0  0  0  0  0  0  0  0
  8 11  1  0
 14 16  1  0
 16 17  1  0
 17 18  1  0
 10 19  1  0
 17 25  1  0
 11 26  1  0
  7 27  1  0
 27 28  1  0
 27 34  2  0
 39 40  1  0
 19 20  2  0
 20 23  1  0
 23 24  2  0
 24 22  1  0
 22 21  2  0
 21 19  1  0
  2  3  1  0
  4  7  1  0
  7  6  2  0
  6  5  1  0
 28 29  2  0
 29 30  1  0
 30 31  2  0
 31 32  1  0
 32 33  2  0
 33 28  1  0
 18 35  2  0
 35 36  1  0
 36 37  2  0
 37 38  1  0
 38 39  2  0
 39 18  1  0
  3  4  2  0
  4 12  1  0
 12 13  2  0
 13 14  1  0
 14 15  2  0
 15  3  1  0
  1  2  2  0
  2  5  1  0
  5 10  2  0
 10  9  1  0
  9  8  2  0
  8  1  1  0
M  END
$$$$
