No_2271-complexes_sdf/6BKW-FPZ/2024-09-17-14-21-01/
     RDKit          3D

 19 20  0  0  0  0  0  0  0  0999 V2000
   -7.7129    4.2099   27.0854 C   0  0  0  0  0  0  0  0  0  0  0  0
   -7.7814    5.1722   27.8972 C   0  0  0  0  0  0  0  0  0  0  0  0
   -8.8776    3.8408   26.3416 C   0  0  0  0  0  0  0  0  0  0  0  0
   -9.9844    4.6492   26.4743 C   0  0  0  0  0  0  0  0  0  0  0  0
   -8.8033    6.1375   27.8728 C   0  0  0  0  0  0  0  0  0  0  0  0
   -9.9554    5.8280   27.1736 C   0  0  0  0  0  0  0  0  0  0  0  0
   -8.8740    2.6184   25.5584 C   0  0  0  0  0  0  0  0  0  0  0  0
   -9.7040    1.6620   26.0098 C   0  0  2  0  0  0  0  0  0  0  0  0
   -9.5239    0.4451   25.5235 C   0  0  0  0  0  0  0  0  0  0  0  0
   -8.6993    0.1169   24.7249 C   0  0  0  0  0  0  0  0  0  0  0  0
   -8.2165   -1.1150   24.4773 C   0  0  0  0  0  0  0  0  0  0  0  0
   -8.8826   -2.1872   25.0460 C   0  0  0  0  0  0  0  0  0  0  0  0
   -9.8706   -1.9501   25.9427 C   0  0  0  0  0  0  0  0  0  0  0  0
  -10.1311   -0.6627   26.3294 C   0  0  0  0  0  0  0  0  0  0  0  0
  -10.8425    1.9399   26.8839 C   0  0  0  0  0  0  0  0  0  0  0  0
  -12.0157    1.7222   26.6938 C   0  0  0  0  0  0  0  0  0  0  0  0
  -13.0121    1.9567   27.6898 C   0  0  0  0  0  0  0  0  0  0  0  0
  -12.6588    2.6983   28.8371 C   0  0  0  0  0  0  0  0  0  0  0  0
  -13.6079    3.0400   29.8794 C   0  0  0  0  0  0  0  0  0  0  0  0
  3  7  1  0
  8  7  1  6
  8  9  1  0
  8 15  1  0
 15 16  2  3
 16 17  1  0
 17 18  2  3
 18 19  1  0
  9 10  2  0
 10 11  1  0
 11 12  2  0
 12 13  1  0
 13 14  2  0
 14  9  1  0
  1  2  2  0
  2  5  1  0
  5  6  2  0
  6  4  1  0
  4  3  2  0
  3  1  1  0
M  END
$$$$
