No_2784-complexes_sdf/6BKW-FPZ/2024-09-17-14-21-01/
     RDKit          3D

 28 29  0  0  0  0  0  0  0  0999 V2000
   -7.9040    3.9820   27.1177 C   0  0  2  0  0  0  0  0  0  0  0  0
   -9.0711    4.3164   27.0630 C   0  0  0  0  0  0  0  0  0  0  0  0
   -9.5294    5.4517   27.7215 C   0  0  0  0  0  0  0  0  0  0  0  0
   -7.4336    2.7132   26.5681 C   0  0  0  0  0  0  0  0  0  0  0  0
   -8.3353    1.8569   26.0442 C   0  0  0  0  0  0  0  0  0  0  0  0
   -9.6477    2.2853   25.9146 C   0  0  0  0  0  0  0  0  0  0  0  0
  -10.0346    3.4497   26.4483 C   0  0  0  0  0  0  0  0  0  0  0  0
   -7.8750    0.5509   25.5918 C   0  0  0  0  0  0  0  0  0  0  0  0
   -8.0040    0.2730   24.4392 O   0  0  0  0  0  0  0  0  0  0  0  0
   -7.3963   -0.2648   26.4783 O   0  0  0  0  0  0  0  0  0  0  0  0
   -6.9742    4.6712   27.8766 F   0  0  0  0  0  0  0  0  0  0  0  0
   -6.8380   -1.4066   26.2958 C   0  0  0  0  0  0  0  0  0  0  0  0
   -7.1246   -2.4470   26.4871 C   0  0  0  0  0  0  0  0  0  0  0  0
   -5.4221   -1.1403   25.6802 C   0  0  0  0  0  0  0  0  0  0  0  0
   -4.7488   -0.0413   25.8123 N   0  0  0  0  0  0  0  0  0  0  0  0
   -7.4536   -3.1733   27.1572 C   0  0  0  0  0  0  0  0  0  0  0  0
   -7.5555   -2.7838   28.6383 C   0  0  0  0  0  0  0  0  0  0  0  0
   -6.5115   -2.2295   29.2404 C   0  0  0  0  0  0  0  0  0  0  0  0
   -6.5003   -1.9596   30.6757 C   0  0  0  0  0  0  0  0  0  0  0  0
   -7.5770   -2.4085   31.4828 C   0  0  0  0  0  0  0  0  0  0  0  0
   -8.6446   -3.0745   30.8186 C   0  0  0  0  0  0  0  0  0  0  0  0
   -8.6251   -3.2916   29.4868 C   0  0  0  0  0  0  0  0  0  0  0  0
   -3.3830   -0.1247   26.3567 C   0  0  2  0  0  0  0  0  0  0  0  0
   -2.9055    1.1155   26.8821 C   0  0  0  0  0  0  0  0  0  0  0  0
   -2.5327   -0.6441   25.4732 F   0  0  0  0  0  0  0  0  0  0  0  0
   -3.4143   -1.1686   27.5833 C   0  0  0  0  0  0  0  0  0  0  0  0
   -2.1340   -1.4539   28.1735 C   0  0  0  0  0  0  0  0  0  0  0  0
   -1.2293   -1.2678   27.6702 N   0  0  0  0  0  0  0  0  0  0  0  0
  1  2  1  0
  2  3  2  0
  1  4  1  0
  4  5  1  0
  5  6  1  0
  2  7  1  0
  6  7  1  0
  5  8  1  0
  8  9  2  0
  8 10  1  0
  1 11  1  1
 10 12  1  0
 12 13  2  3
 12 14  1  0
 14 15  1  0
 13 16  1  0
 16 17  1  0
 15 23  1  0
 23 24  1  1
 23 25  1  0
 23 26  1  0
 26 27  1  0
 27 28  2  0
 17 18  2  0
 18 19  1  0
 19 20  2  0
 20 21  1  0
 21 22  2  0
 22 17  1  0
M  END
$$$$
