No_2410-complexes_sdf/6BKW-FPZ/2024-09-17-14-21-01/
     RDKit          3D

 16 18  0  0  0  0  0  0  0  0999 V2000
   -7.9040    3.9820   27.1177 C   0  0  0  0  0  0  0  0  0  0  0  0
   -8.2057    2.8231   26.8733 C   0  0  0  0  0  0  0  0  0  0  0  0
   -8.7695    5.0740   26.7916 C   0  0  0  0  0  0  0  0  0  0  0  0
   -9.9618    4.7598   26.1630 C   0  0  0  0  0  0  0  0  0  0  0  0
   -7.3763    1.7038   27.3414 C   0  0  0  0  0  0  0  0  0  0  0  0
   -9.3929    2.3436   26.2895 C   0  0  0  0  0  0  0  0  0  0  0  0
  -10.1631    3.1807   26.0180 C   0  0  0  0  0  0  0  0  0  0  0  0
   -6.1850    1.9874   27.9025 N   0  0  0  0  0  0  0  0  0  0  0  0
   -7.6527    0.3443   27.2422 C   0  0  0  0  0  0  0  0  0  0  0  0
   -5.1463    1.0397   28.1224 C   0  0  0  0  0  0  0  0  0  0  0  0
   -3.8586    1.5350   28.5707 C   0  0  0  0  0  0  0  0  0  0  0  0
   -5.5226   -0.2505   27.9909 C   0  0  0  0  0  0  0  0  0  0  0  0
   -4.5937   -1.2520   28.3943 C   0  0  0  0  0  0  0  0  0  0  0  0
   -6.7708   -0.6086   27.5882 C   0  0  0  0  0  0  0  0  0  0  0  0
   -3.2999   -0.9143   28.6956 C   0  0  0  0  0  0  0  0  0  0  0  0
   -2.9315    0.4690   28.9108 C   0  0  0  0  0  0  0  0  0  0  0  0
  2  5  1  0
  5  8  1  0
  5  9  1  0
  8 10  1  0
  9 14  1  0
 12 14  1  0
 10 11  2  0
 11 16  1  0
 16 15  2  0
 15 13  1  0
 13 12  2  0
 12 10  1  0
  1  2  2  0
  2  6  1  0
  6  7  2  0
  7  4  1  0
  4  3  2  0
  3  1  1  0
M  END
$$$$
