No_2254-complexes_sdf/6BKW-FPZ/2024-09-17-14-21-01/
     RDKit          3D

 22 24  0  0  0  0  0  0  0  0999 V2000
   -7.9040    3.9820   27.1177 C   0  0  0  0  0  0  0  0  0  0  0  0
   -8.2057    2.8231   26.8733 C   0  0  0  0  0  0  0  0  0  0  0  0
   -8.7695    5.0740   26.7916 C   0  0  0  0  0  0  0  0  0  0  0  0
   -9.9618    4.7598   26.1630 C   0  0  0  0  0  0  0  0  0  0  0  0
   -7.3763    1.7038   27.3414 C   0  0  0  0  0  0  0  0  0  0  0  0
   -9.4134    2.4504   26.3004 C   0  0  0  0  0  0  0  0  0  0  0  0
   -9.7333    1.0748   26.0466 C   0  0  0  0  0  0  0  0  0  0  0  0
  -10.2741    3.4518   25.8746 C   0  0  0  0  0  0  0  0  0  0  0  0
   -7.5989    0.3567   27.1830 C   0  0  0  0  0  0  0  0  0  0  0  0
   -8.8521    0.0555   26.5137 C   0  0  0  0  0  0  0  0  0  0  0  0
   -8.4106    6.5096   27.0640 C   0  0  0  0  0  0  0  0  0  0  0  0
   -8.0109    7.6232   27.0334 N   0  0  0  0  0  0  0  0  0  0  0  0
   -6.6081   -0.8452   27.7320 Cl  0  0  0  0  0  0  0  0  0  0  0  0
  -11.4597    3.2226   25.0785 C   0  0  0  0  0  0  0  0  0  0  0  0
  -12.6178    3.1346   25.6127 C   0  0  0  0  0  0  0  0  0  0  0  0
  -11.3439    3.0828   23.6696 C   0  0  0  0  0  0  0  0  0  0  0  0
  -12.2034    2.7816   22.8732 C   0  0  0  0  0  0  0  0  0  0  0  0
  -12.8614    3.2673   27.0578 C   0  0  0  0  0  0  0  0  0  0  0  0
  -13.7777    3.0074   24.8225 C   0  0  0  0  0  0  0  0  0  0  0  0
  -13.5666    2.8728   23.4249 C   0  0  0  0  0  0  0  0  0  0  0  0
  -12.5692    4.0375   27.7729 C   0  0  0  0  0  0  0  0  0  0  0  0
  -12.8220    4.0935   29.2440 C   0  0  0  0  0  0  0  0  0  0  0  0
  3 11  1  0
 11 12  3  0
  9 13  1  0
  8 14  1  0
 15 18  1  0
 18 21  2  3
 21 22  1  0
  1  2  2  0
  6  8  2  0
  8  4  1  0
  4  3  2  0
  3  1  1  0
  2  5  1  0
  5  9  2  0
  9 10  1  0
 10  7  2  0
  7  6  1  0
  6  2  1  0
 14 15  2  0
 15 19  1  0
 19 20  2  0
 20 17  1  0
 17 16  2  0
 16 14  1  0
M  END
$$$$
