No_275-complexes_sdf/6BKW-FPZ/2024-09-17-14-21-01/
     RDKit          3D

 37 42  0  0  0  0  0  0  0  0999 V2000
   -7.9040    3.9820   27.1177 C   0  0  1  0  0  0  0  0  0  0  0  0
   -9.0711    4.3164   27.0630 C   0  0  2  0  0  0  0  0  0  0  0  0
   -9.8698    3.9665   25.9494 C   0  0  0  0  0  0  0  0  0  0  0  0
   -6.9515    4.6878   28.0207 C   0  0  0  0  0  0  0  0  0  0  0  0
   -9.6406    4.4469   24.7375 C   0  0  0  0  0  0  0  0  0  0  0  0
  -10.8702    2.9094   26.0270 C   0  0  0  0  0  0  0  0  0  0  0  0
  -11.1953    2.3514   27.1498 C   0  0  0  0  0  0  0  0  0  0  0  0
  -12.4664    2.2695   27.5443 C   0  0  0  0  0  0  0  0  0  0  0  0
   -7.4899    5.8504   28.3997 C   0  0  0  0  0  0  0  0  0  0  0  0
   -8.7075    6.1395   27.6743 C   0  0  0  0  0  0  0  0  0  0  0  0
  -11.5287    2.5198   24.8543 C   0  0  0  0  0  0  0  0  0  0  0  0
  -12.3027    1.4762   24.8805 C   0  0  0  0  0  0  0  0  0  0  0  0
  -12.8886    0.9812   23.8773 C   0  0  0  0  0  0  0  0  0  0  0  0
  -12.8495    1.7287   28.9226 C   0  0  0  0  0  0  0  0  0  0  0  0
  -10.2847    4.2783   23.5956 C   0  0  0  0  0  0  0  0  0  0  0  0
  -11.2311    3.2492   23.6030 C   0  0  0  0  0  0  0  0  0  0  0  0
  -13.7635   -0.1358   23.9139 C   0  0  0  0  0  0  0  0  0  0  0  0
  -14.0064   -0.6152   25.1499 C   0  0  0  0  0  0  0  0  0  0  0  0
  -13.4378   -0.1759   26.2764 C   0  0  0  0  0  0  0  0  0  0  0  0
  -12.5877    0.9232   26.2223 C   0  0  0  0  0  0  0  0  0  0  0  0
  -14.1093    2.2019   29.3902 C   0  0  0  0  0  0  0  0  0  0  0  0
  -14.4576    1.7582   30.6056 C   0  0  0  0  0  0  0  0  0  0  0  0
   -7.4142    2.6004   26.7812 C   0  0  0  0  0  0  0  0  0  0  0  0
  -13.9992    3.7541   29.4651 C   0  0  0  0  0  0  0  0  0  0  0  0
  -14.9325    4.3680   30.2860 C   0  0  0  0  0  0  0  0  0  0  0  0
  -15.7147    2.3361   31.2945 C   0  0  0  0  0  0  0  0  0  0  0  0
  -15.3237    3.8440   31.5541 C   0  0  0  0  0  0  0  0  0  0  0  0
  -15.2691    1.9707   28.4192 C   0  0  0  0  0  0  0  0  0  0  0  0
  -16.1347    1.0293   28.6026 C   0  0  0  0  0  0  0  0  0  0  0  0
  -15.3959    2.9203   27.3004 C   0  0  0  0  0  0  0  0  0  0  0  0
  -16.3769    2.6365   26.3076 C   0  0  0  0  0  0  0  0  0  0  0  0
  -17.1218    0.7560   27.5709 C   0  0  0  0  0  0  0  0  0  0  0  0
  -17.2253    1.5789   26.5257 C   0  0  0  0  0  0  0  0  0  0  0  0
  -16.4629    3.4970   25.1215 C   0  0  0  0  0  0  0  0  0  0  0  0
  -16.6033    2.8358   24.1160 F   0  0  0  0  0  0  0  0  0  0  0  0
  -17.5423    4.3271   25.2921 F   0  0  0  0  0  0  0  0  0  0  0  0
  -15.3848    4.3011   24.9910 F   0  0  0  0  0  0  0  0  0  0  0  0
  1  2  1  0
  2  3  1  6
  1  4  1  0
  4  9  2  0
  2 10  1  0
  9 10  1  0
  8 14  1  0
 14 21  1  0
 21 22  1  0
  1 23  1  1
 21 24  1  0
 24 25  1  0
 22 26  1  0
 25 27  1  0
 26 27  1  0
 21 28  1  0
 31 34  1  0
 34 35  1  0
 34 36  1  0
 34 37  1  0
  6  7  2  0
  7  8  1  0
  8 20  2  0
 12 11  2  0
 28 29  2  0
 29 32  1  0
 32 33  2  0
 33 31  1  0
 31 30  2  0
 30 28  1  0
 12 13  1  0
 13 17  2  0
 17 18  1  0
 18 19  2  0
 19 20  1  0
 20 12  1  0
  3  5  2  0
  5 15  1  0
 15 16  2  0
 16 11  1  0
 11  6  1  0
  6  3  1  0
M  END
$$$$
