No_2788-complexes_sdf/6BKW-FPZ/2024-09-17-14-21-01/
     RDKit          3D

  9  9  0  0  0  0  0  0  0  0999 V2000
   -7.9040    3.9820   27.1177 C   0  0  0  0  0  0  0  0  0  0  0  0
   -7.8663    4.8694   27.9238 C   0  0  0  0  0  0  0  0  0  0  0  0
   -7.4698    2.6989   27.4277 C   0  0  0  0  0  0  0  0  0  0  0  0
   -6.1691    2.6024   27.7920 C   0  0  0  0  0  0  0  0  0  0  0  0
   -8.5263    6.1540   27.6333 C   0  0  0  0  0  0  0  0  0  0  0  0
   -5.5598    1.3280   28.1204 C   0  0  0  0  0  0  0  0  0  0  0  0
   -6.2761    0.1892   27.8802 C   0  0  0  0  0  0  0  0  0  0  0  0
   -8.1136    1.4987   27.1290 C   0  0  0  0  0  0  0  0  0  0  0  0
   -7.5982    0.2905   27.3708 C   0  0  0  0  0  0  0  0  0  0  0  0
  1  2  2  3
  1  3  1  0
  2  5  1  0
  3  4  2  0
  4  6  1  0
  6  7  2  0
  7  9  1  0
  9  8  2  0
  8  3  1  0
M  END
$$$$
