No_2277-complexes_sdf/6BKW-FPZ/2024-09-17-14-21-01/
     RDKit          3D

 23 26  0  0  0  0  0  0  0  0999 V2000
   -7.2496    3.8871   27.4508 C   0  0  0  0  0  0  0  0  0  0  0  0
   -7.6161    2.7143   27.1523 C   0  0  0  0  0  0  0  0  0  0  0  0
   -8.6212    2.2239   26.4074 C   0  0  0  0  0  0  0  0  0  0  0  0
   -8.2540    4.9237   27.1711 C   0  0  0  0  0  0  0  0  0  0  0  0
   -9.3729    4.5806   26.4433 C   0  0  0  0  0  0  0  0  0  0  0  0
   -9.5830    3.2969   26.1026 C   0  0  0  0  0  0  0  0  0  0  0  0
   -7.9454    6.2274   27.5101 N   0  0  0  0  0  0  0  0  0  0  0  0
   -8.8658    0.8930   26.0612 C   0  0  0  0  0  0  0  0  0  0  0  0
   -9.2443    0.5240   25.0670 N   0  0  0  0  0  0  0  0  0  0  0  0
   -9.2141   -0.6187   24.4830 C   0  0  0  0  0  0  0  0  0  0  0  0
   -8.5194    0.0200   26.9980 O   0  0  0  0  0  0  0  0  0  0  0  0
   -8.7633    7.3056   27.1111 C   0  0  0  0  0  0  0  0  0  0  0  0
   -9.4437   -0.7455   23.1973 C   0  0  0  0  0  0  0  0  0  0  0  0
   -9.7162    0.2928   22.5612 C   0  0  0  0  0  0  0  0  0  0  0  0
   -9.7087    1.6137   22.9058 C   0  0  0  0  0  0  0  0  0  0  0  0
   -9.4083    1.7336   24.1636 C   0  0  1  0  0  0  0  0  0  0  0  0
  -10.1829    2.9547   24.8638 N   0  0  0  0  0  0  0  0  0  0  0  0
  -11.2721    3.5418   24.4148 C   0  0  0  0  0  0  0  0  0  0  0  0
  -12.4013    3.3697   25.0595 C   0  0  0  0  0  0  0  0  0  0  0  0
  -11.1664    4.2626   23.2074 C   0  0  0  0  0  0  0  0  0  0  0  0
  -13.6070    3.8977   24.5480 C   0  0  0  0  0  0  0  0  0  0  0  0
  -12.3046    4.9350   22.6905 C   0  0  0  0  0  0  0  0  0  0  0  0
  -13.5071    4.7654   23.4146 C   0  0  0  0  0  0  0  0  0  0  0  0
  4  7  1  0
  3  8  1  0
  8  9  1  0
  9 10  1  0
  8 11  2  0
  7 12  1  0
 13 14  1  0
  9 16  1  0
 16 15  1  6
  6 17  1  0
 16 17  1  0
 17 18  1  0
 10 13  1  0
 14 15  1  0
  1  2  2  0
  2  3  1  0
  3  6  2  0
  6  5  1  0
  5  4  2  0
  4  1  1  0
 18 19  2  0
 19 21  1  0
 21 23  2  0
 23 22  1  0
 22 20  2  0
 20 18  1  0
M  END
$$$$
