No_2357-complexes_sdf/6BKW-FPZ/2024-09-17-14-21-01/
     RDKit          3D

 29 31  0  0  0  0  0  0  0  0999 V2000
   -7.7129    4.2099   27.0854 C   0  0  0  0  0  0  0  0  0  0  0  0
   -8.9133    4.4736   27.0998 C   0  0  0  0  0  0  0  0  0  0  0  0
   -9.4616    5.6470   27.6290 C   0  0  0  0  0  0  0  0  0  0  0  0
   -7.2326    2.9175   26.7557 C   0  0  0  0  0  0  0  0  0  0  0  0
   -8.1546    1.9086   26.5054 C   0  0  0  0  0  0  0  0  0  0  0  0
   -9.4618    2.2289   26.4212 C   0  0  0  0  0  0  0  0  0  0  0  0
   -9.8481    3.4572   26.7692 C   0  0  0  0  0  0  0  0  0  0  0  0
   -7.5985    0.5725   26.2149 C   0  0  0  0  0  0  0  0  0  0  0  0
   -7.8455   -0.0346   25.1313 C   0  0  0  0  0  0  0  0  0  0  0  0
   -7.2444   -1.2996   24.8230 C   0  0  0  0  0  0  0  0  0  0  0  0
   -6.8147   -0.0682   27.2905 C   0  0  0  0  0  0  0  0  0  0  0  0
   -6.2248   -1.2965   27.0717 C   0  0  0  0  0  0  0  0  0  0  0  0
   -6.4648   -1.9028   25.8152 C   0  0  0  0  0  0  0  0  0  0  0  0
   -8.8606    6.8177   26.9537 C   0  0  0  0  0  0  0  0  0  0  0  0
   -8.0305    6.7877   26.0738 C   0  0  0  0  0  0  0  0  0  0  0  0
   -7.4619    8.1844   25.8388 C   0  0  0  0  0  0  0  0  0  0  0  0
  -11.3229    3.6916   26.7036 C   0  0  1  0  0  0  0  0  0  0  0  0
  -11.9908    3.7756   25.7754 N   0  0  0  0  0  0  0  0  0  0  0  0
  -13.3238    3.8433   25.6864 C   0  0  0  0  0  0  0  0  0  0  0  0
  -11.9973    3.1898   27.9098 C   0  0  0  0  0  0  0  0  0  0  0  0
  -13.3579    3.4508   28.1629 C   0  0  2  0  0  0  0  0  0  0  0  0
  -14.0205    3.1950   29.3673 C   0  0  0  0  0  0  0  0  0  0  0  0
  -14.0500    3.7857   26.9185 C   0  0  0  0  0  0  0  0  0  0  0  0
  -14.3620    4.0351   30.1246 C   0  0  0  0  0  0  0  0  0  0  0  0
  -14.8835    3.8006   31.5336 C   0  0  0  0  0  0  0  0  0  0  0  0
  -15.1087    4.8256   32.4778 C   0  0  0  0  0  0  0  0  0  0  0  0
  -11.2958    4.0445   24.4164 C   0  0  0  0  0  0  0  0  0  0  0  0
  -14.6741    4.6151   33.7567 C   0  0  0  0  0  0  0  0  0  0  0  0
  -14.5880    5.6932   34.7334 C   0  0  0  0  0  0  0  0  0  0  0  0
  2  3  1  0
  5  8  1  0
  3 14  1  0
 14 15  2  3
 15 16  1  0
 17  7  1  6
 17 18  1  0
 18 19  1  0
 17 20  1  0
 21 22  1  0
 21 23  1  6
 22 24  2  3
 24 25  1  0
 25 26  1  0
 18 27  1  0
 26 28  2  3
 28 29  1  0
 20 21  1  0
 23 19  1  0
  8  9  2  0
  9 10  1  0
 10 13  2  0
 13 12  1  0
 12 11  2  0
 11  8  1  0
  1  2  2  0
  2  7  1  0
  7  6  2  0
  6  5  1  0
  5  4  2  0
  4  1  1  0
M  END
$$$$
