No_2532-complexes_sdf/6BKW-FPZ/2024-09-17-14-21-01/
     RDKit          3D

 17 20  0  0  0  0  0  0  0  0999 V2000
   -7.9040    3.9820   27.1177 C   0  0  0  0  0  0  0  0  0  0  0  0
   -9.0711    4.3164   27.0630 C   0  0  0  0  0  0  0  0  0  0  0  0
   -9.5182    5.5541   27.5777 C   0  0  0  0  0  0  0  0  0  0  0  0
   -6.9424    4.7983   27.8424 C   0  0  0  0  0  0  0  0  0  0  0  0
   -7.3526    5.9739   28.3909 C   0  0  0  0  0  0  0  0  0  0  0  0
   -8.6479    6.3742   28.2169 C   0  0  0  0  0  0  0  0  0  0  0  0
  -10.0793    3.4689   26.3368 C   0  0  0  0  0  0  0  0  0  0  0  0
  -10.8065    3.4472   25.6317 C   0  0  0  0  0  0  0  0  0  0  0  0
  -11.5611    2.4356   25.0031 C   0  0  0  0  0  0  0  0  0  0  0  0
  -11.2043    1.1831   25.4286 C   0  0  0  0  0  0  0  0  0  0  0  0
   -9.7871    1.9542   26.6484 C   0  0  0  0  0  0  0  0  0  0  0  0
  -10.2519    1.1062   26.3149 C   0  0  0  0  0  0  0  0  0  0  0  0
   -9.8811   -0.3791   26.7830 C   0  0  0  0  0  0  0  0  0  0  0  0
   -8.6176   -0.5623   27.2904 C   0  0  0  0  0  0  0  0  0  0  0  0
   -7.8841    0.6288   27.7054 C   0  0  0  0  0  0  0  0  0  0  0  0
   -8.3125    1.8067   27.4978 C   0  0  0  0  0  0  0  0  0  0  0  0
   -7.5310    2.8698   27.6760 N   0  0  0  0  0  0  0  0  0  0  0  0
  2  7  1  0
  1 17  1  0
 16 17  1  0
  7  8  2  0
  8  9  1  0
  9 10  2  0
 10 12  1  0
 11  7  1  0
 11 12  2  0
 12 13  1  0
 13 14  2  0
 14 15  1  0
 15 16  2  0
 16 11  1  0
  1  2  1  0
  2  3  2  0
  3  6  1  0
  6  5  2  0
  5  4  1  0
  4  1  2  0
M  END
$$$$
