No_2987-complexes_sdf/6BKW-FPZ/2024-09-17-14-21-01/
     RDKit          3D

 40 43  0  0  0  0  0  0  0  0999 V2000
   -7.2496    3.8871   27.4508 C   0  0  0  0  0  0  0  0  0  0  0  0
   -7.6161    2.7143   27.1523 C   0  0  0  0  0  0  0  0  0  0  0  0
   -8.8302    2.4659   26.5056 C   0  0  0  0  0  0  0  0  0  0  0  0
   -8.1584    5.0090   27.3234 C   0  0  0  0  0  0  0  0  0  0  0  0
   -9.3788    4.7965   26.7695 C   0  0  0  0  0  0  0  0  0  0  0  0
   -9.7028    3.5649   26.3276 C   0  0  0  0  0  0  0  0  0  0  0  0
   -6.7182    1.5519   27.3631 C   0  0  0  0  0  0  0  0  0  0  0  0
   -5.4694    1.7365   28.0694 C   0  0  0  0  0  0  0  0  0  0  0  0
   -4.5986    0.6519   28.2611 C   0  0  0  0  0  0  0  0  0  0  0  0
   -5.0102   -0.6262   27.9715 C   0  0  0  0  0  0  0  0  0  0  0  0
   -6.9338    0.1692   27.2539 C   0  0  0  0  0  0  0  0  0  0  0  0
   -6.2308   -0.8175   27.4839 C   0  0  0  0  0  0  0  0  0  0  0  0
   -7.6953    6.3643   27.7789 C   0  0  0  0  0  0  0  0  0  0  0  0
   -3.0378    1.0317   28.9744 Cl  0  0  0  0  0  0  0  0  0  0  0  0
  -10.9953    3.3504   25.6306 C   0  0  0  0  0  0  0  0  0  0  0  0
  -11.1780    2.1884   25.1167 C   0  0  2  0  0  0  0  0  0  0  0  0
  -11.2614    2.1031   23.8437 C   0  0  0  0  0  0  0  0  0  0  0  0
  -11.3838    3.2239   23.0376 C   0  0  0  0  0  0  0  0  0  0  0  0
  -11.3898    3.2881   21.6595 C   0  0  0  0  0  0  0  0  0  0  0  0
  -11.1915    2.0669   21.0118 C   0  0  0  0  0  0  0  0  0  0  0  0
  -11.0120    0.8947   21.6582 C   0  0  0  0  0  0  0  0  0  0  0  0
  -10.9047    0.8703   23.0652 C   0  0  0  0  0  0  0  0  0  0  0  0
  -12.3997    1.4793   25.7608 C   0  0  0  0  0  0  0  0  0  0  0  0
  -12.2197    0.2500   26.3654 C   0  0  0  0  0  0  0  0  0  0  0  0
  -13.3207   -0.3804   26.9842 C   0  0  0  0  0  0  0  0  0  0  0  0
  -14.4982    0.3007   27.0939 C   0  0  0  0  0  0  0  0  0  0  0  0
  -14.6531    1.5337   26.5377 C   0  0  0  0  0  0  0  0  0  0  0  0
  -13.6078    2.1708   25.9180 C   0  0  0  0  0  0  0  0  0  0  0  0
  -15.9520    2.2464   26.6275 C   0  0  0  0  0  0  0  0  0  0  0  0
  -16.4578    2.7393   25.7653 O   0  0  0  0  0  0  0  0  0  0  0  0
  -16.4554    2.2958   27.8656 O   0  0  0  0  0  0  0  0  0  0  0  0
   -6.6990    6.3577   28.4703 F   0  0  0  0  0  0  0  0  0  0  0  0
   -8.2504    7.3202   27.3316 F   0  0  0  0  0  0  0  0  0  0  0  0
  -10.6776   -0.6877   20.7408 Br  0  0  0  0  0  0  0  0  0  0  0  0
   -6.7758   -2.4131   27.1834 Cl  0  0  0  0  0  0  0  0  0  0  0  0
  -11.0916   -0.4390   26.2770 O   0  0  0  0  0  0  0  0  0  0  0  0
  -10.5731   -0.9682   27.4117 C   0  0  0  0  0  0  0  0  0  0  0  0
  -10.1925   -2.3801   27.2194 C   0  0  0  0  0  0  0  0  0  0  0  0
  -10.0151   -3.0908   28.4342 C   0  0  0  0  0  0  0  0  0  0  0  0
  -10.5323   -2.9173   29.2739 C   0  0  0  0  0  0  0  0  0  0  0  0
  2  7  1  0
  4 13  1  0
  9 14  1  0
  6 15  1  0
 16 15  1  6
 16 23  1  0
 27 29  1  0
 29 30  2  0
 29 31  1  0
 13 32  1  0
 13 33  1  0
 21 34  1  0
 12 35  1  0
 24 36  1  0
 36 37  1  0
 37 38  2  3
 38 39  1  0
 39 40  2  0
 16 17  1  0
  7  8  2  0
  8  9  1  0
  9 10  2  0
 10 12  1  0
 12 11  2  0
 11  7  1  0
 23 24  2  0
 24 25  1  0
 25 26  2  0
 26 27  1  0
 27 28  2  0
 28 23  1  0
  1  2  2  0
  2  3  1  0
  3  6  2  0
  6  5  1  0
  5  4  2  0
  4  1  1  0
 17 18  2  0
 18 19  1  0
 19 20  2  0
 20 21  1  0
 21 22  2  0
 22 17  1  0
M  END
$$$$
