No_2371-complexes_sdf/6BKW-FPZ/2024-09-17-14-21-01/
     RDKit          3D

 20 23  0  0  0  0  0  0  0  0999 V2000
   -7.2496    3.8871   27.4508 C   0  0  0  0  0  0  0  0  0  0  0  0
   -7.9379    4.9063   27.8518 C   0  0  0  0  0  0  0  0  0  0  0  0
   -8.9501    5.3664   27.1340 C   0  0  0  0  0  0  0  0  0  0  0  0
   -7.8297    2.9727   26.4637 C   0  0  0  0  0  0  0  0  0  0  0  0
   -9.6373    4.6098   26.1956 C   0  0  0  0  0  0  0  0  0  0  0  0
   -9.0235    3.4546   25.8531 C   0  0  0  0  0  0  0  0  0  0  0  0
   -9.6280    2.5544   24.8729 C   0  0  0  0  0  0  0  0  0  0  0  0
  -10.3598    3.1203   23.8536 C   0  0  0  0  0  0  0  0  0  0  0  0
  -10.8820    2.5857   22.8768 C   0  0  0  0  0  0  0  0  0  0  0  0
  -11.6726    3.2536   21.8435 C   0  0  0  0  0  0  0  0  0  0  0  0
  -11.9221    4.6427   22.0894 C   0  0  0  0  0  0  0  0  0  0  0  0
  -11.3397    5.2549   23.1256 C   0  0  0  0  0  0  0  0  0  0  0  0
  -10.6171    4.6614   24.0482 C   0  0  0  0  0  0  0  0  0  0  0  0
  -10.1554    5.2681   25.1951 N   0  0  0  0  0  0  0  0  0  0  0  0
   -9.3545    1.1472   24.8343 C   0  0  0  0  0  0  0  0  0  0  0  0
  -10.0871    0.3729   25.7004 C   0  0  0  0  0  0  0  0  0  0  0  0
   -8.4128    0.6205   23.9931 C   0  0  0  0  0  0  0  0  0  0  0  0
   -9.9839   -0.9563   25.6876 C   0  0  0  0  0  0  0  0  0  0  0  0
   -8.1717   -0.7392   23.9749 C   0  0  0  0  0  0  0  0  0  0  0  0
   -8.9604   -1.5533   24.8422 C   0  0  0  0  0  0  0  0  0  0  0  0
  7 15  1  0
  1  2  2  0
  2  3  1  0
  3  5  2  0
  6  4  2  0
  4  1  1  0
  8  9  1  0
  9 10  2  0
 10 11  1  0
 11 12  2  0
 12 13  1  0
  5  6  1  0
  6  7  1  0
  7  8  2  0
  8 13  1  0
 13 14  2  0
 14  5  1  0
 15 16  2  0
 16 18  1  0
 18 20  2  0
 20 19  1  0
 19 17  2  0
 17 15  1  0
M  END
$$$$
