No_2833-complexes_sdf/6BKW-FPZ/2024-09-17-14-21-01/
     RDKit          3D

 31 35  0  0  0  0  0  0  0  0999 V2000
   -7.9040    3.9820   27.1177 C   0  0  0  0  0  0  0  0  0  0  0  0
   -7.8663    4.8694   27.9238 C   0  0  0  0  0  0  0  0  0  0  0  0
   -9.0501    3.8017   26.2617 C   0  0  0  0  0  0  0  0  0  0  0  0
   -9.1826    2.7026   25.3575 C   0  0  0  0  0  0  0  0  0  0  0  0
   -8.6940    6.0131   27.8614 C   0  0  0  0  0  0  0  0  0  0  0  0
   -9.9755    4.8547   26.2361 C   0  0  0  0  0  0  0  0  0  0  0  0
   -9.7463    5.9398   27.0364 C   0  0  0  0  0  0  0  0  0  0  0  0
   -8.7094    1.4766   25.7702 C   0  0  0  0  0  0  0  0  0  0  0  0
   -9.8701    2.8497   24.1394 C   0  0  0  0  0  0  0  0  0  0  0  0
   -8.8286    0.4017   24.9127 C   0  0  0  0  0  0  0  0  0  0  0  0
   -9.9524    1.7536   23.3054 C   0  0  0  0  0  0  0  0  0  0  0  0
   -9.4143    0.5348   23.6888 C   0  0  0  0  0  0  0  0  0  0  0  0
   -9.5580   -0.6210   22.7482 C   0  0  0  0  0  0  0  0  0  0  0  0
  -10.2061   -0.5024   21.6149 C   0  0  0  0  0  0  0  0  0  0  0  0
  -10.7156    0.8326   21.2297 C   0  0  0  0  0  0  0  0  0  0  0  0
  -10.6140    1.9247   22.0460 C   0  0  0  0  0  0  0  0  0  0  0  0
  -11.1199    3.1874   21.5596 C   0  0  0  0  0  0  0  0  0  0  0  0
   -8.1879   -0.8563   25.3425 C   0  0  0  0  0  0  0  0  0  0  0  0
   -7.4027   -0.8593   26.4124 N   0  0  0  0  0  0  0  0  0  0  0  0
   -6.6546   -1.4673   26.9461 C   0  0  0  0  0  0  0  0  0  0  0  0
   -5.9924   -1.1762   28.2207 C   0  0  0  0  0  0  0  0  0  0  0  0
   -5.5712    0.1917   28.4145 C   0  0  0  0  0  0  0  0  0  0  0  0
   -6.2150    1.1553   27.5630 C   0  0  0  0  0  0  0  0  0  0  0  0
   -6.9616    0.6899   26.5312 N   0  0  0  0  0  0  0  0  0  0  0  0
   -4.6188    0.6410   29.3955 C   0  0  0  0  0  0  0  0  0  0  0  0
   -4.2890   -0.1663   30.4969 C   0  0  0  0  0  0  0  0  0  0  0  0
   -3.2497    0.2103   31.3955 C   0  0  0  0  0  0  0  0  0  0  0  0
   -5.1405   -1.2321   30.8442 C   0  0  0  0  0  0  0  0  0  0  0  0
   -4.8331   -1.7809   32.1840 C   0  0  0  0  0  0  0  0  0  0  0  0
   -2.9415   -0.3934   32.5878 C   0  0  0  0  0  0  0  0  0  0  0  0
   -3.7684   -1.4171   33.0115 C   0  0  0  0  0  0  0  0  0  0  0  0
  3  4  1  0
 16 17  1  0
 10 18  1  0
 18 19  1  0
 19 20  1  0
 21 22  1  0
 22 23  1  0
 19 24  1  0
 22 25  1  0
 25 26  1  0
 20 21  1  0
 23 24  1  0
  4  8  2  0
  8 10  1  0
 10 12  2  0
 11  9  2  0
  9  4  1  0
 11 12  1  0
 12 13  1  0
 13 14  2  0
 14 15  1  0
 15 16  2  0
 16 11  1  0
 26 27  2  0
 27 30  1  0
 30 31  2  0
 31 29  1  0
 29 28  2  0
 28 26  1  0
  1  2  2  0
  2  5  1  0
  5  7  2  0
  7  6  1  0
  6  3  2  0
  3  1  1  0
M  END
$$$$
