No_2137-complexes_sdf/6BKW-FPZ/2024-09-17-14-21-01/
     RDKit          3D

 20 22  0  0  0  0  0  0  0  0999 V2000
   -7.2496    3.8871   27.4508 C   0  0  0  0  0  0  0  0  0  0  0  0
   -7.6161    2.7143   27.1523 C   0  0  0  0  0  0  0  0  0  0  0  0
   -8.8302    2.4659   26.5056 C   0  0  0  0  0  0  0  0  0  0  0  0
   -8.1584    5.0089   27.3234 C   0  0  0  0  0  0  0  0  0  0  0  0
   -9.3788    4.7965   26.7695 C   0  0  0  0  0  0  0  0  0  0  0  0
   -9.7028    3.5649   26.3276 C   0  0  0  0  0  0  0  0  0  0  0  0
   -6.5552    1.6737   27.4428 C   0  0  0  0  0  0  0  0  0  0  0  0
   -6.9794    0.3269   27.6483 C   0  0  0  0  0  0  0  0  0  0  0  0
   -6.0232   -0.6304   27.9899 C   0  0  0  0  0  0  0  0  0  0  0  0
   -4.7022   -0.2003   28.2459 C   0  0  0  0  0  0  0  0  0  0  0  0
   -4.3683    1.1180   28.0802 C   0  0  0  0  0  0  0  0  0  0  0  0
   -5.2478    2.0128   27.7808 C   0  0  0  0  0  0  0  0  0  0  0  0
   -7.7157    6.3738   27.7620 C   0  0  0  0  0  0  0  0  0  0  0  0
   -3.7237   -1.2526   28.7104 C   0  0  0  0  0  0  0  0  0  0  0  0
   -2.5866   -1.1523   28.2686 C   0  0  0  0  0  0  0  0  0  0  0  0
   -4.1325   -2.2202   29.6414 C   0  0  0  0  0  0  0  0  0  0  0  0
   -3.4745   -3.2115   29.7795 C   0  0  0  0  0  0  0  0  0  0  0  0
   -1.6009   -2.1868   28.5832 C   0  0  0  0  0  0  0  0  0  0  0  0
   -2.0665   -3.2102   29.4042 C   0  0  0  0  0  0  0  0  0  0  0  0
   -7.7092    7.3821   27.0926 N   0  0  0  0  0  0  0  0  0  0  0  0
  2  7  1  0
  4 13  1  0
 10 14  1  0
 13 20  1  0
 14 15  2  0
 15 18  1  0
 18 19  2  0
 19 17  1  0
 17 16  2  0
 16 14  1  0
  1  2  2  0
  2  3  1  0
  3  6  2  0
  6  5  1  0
  5  4  2  0
  4  1  1  0
  7  8  2  0
  8  9  1  0
  9 10  2  0
 10 11  1  0
 11 12  2  0
 12  7  1  0
M  END
$$$$
