No_2263-complexes_sdf/6BKW-FPZ/2024-09-17-14-21-01/
     RDKit          3D

 14 15  0  0  0  0  0  0  0  0999 V2000
   -7.7129    4.2099   27.0854 C   0  0  0  0  0  0  0  0  0  0  0  0
   -8.2112    3.0637   26.9225 C   0  0  0  0  0  0  0  0  0  0  0  0
   -7.0021    4.5281   28.2396 C   0  0  0  0  0  0  0  0  0  0  0  0
   -9.4237    2.7810   26.2714 C   0  0  0  0  0  0  0  0  0  0  0  0
   -9.8781    3.7859   25.4663 C   0  0  0  0  0  0  0  0  0  0  0  0
   -9.3689    5.0975   25.5965 C   0  0  0  0  0  0  0  0  0  0  0  0
   -8.4784    5.3402   26.5448 C   0  0  0  0  0  0  0  0  0  0  0  0
  -10.9887    3.5347   24.5135 C   0  0  0  0  0  0  0  0  0  0  0  0
  -12.1661    3.1796   24.9300 C   0  0  0  0  0  0  0  0  0  0  0  0
  -10.5762    3.3225   23.1361 C   0  0  0  0  0  0  0  0  0  0  0  0
  -11.4762    3.1226   22.1466 C   0  0  0  0  0  0  0  0  0  0  0  0
  -13.1926    2.9948   23.9268 C   0  0  0  0  0  0  0  0  0  0  0  0
  -12.8373    2.9422   22.5775 C   0  0  0  0  0  0  0  0  0  0  0  0
   -7.0077    5.7502   28.7358 N   0  0  0  0  0  0  0  0  0  0  0  0
  5  8  1  0
  3 14  1  0
  3  1  1  0
  8  9  2  0
  9 12  1  0
 12 13  2  0
 13 11  1  0
 11 10  2  0
 10  8  1  0
  1  2  2  0
  2  4  1  0
  4  5  2  0
  5  6  1  0
  6  7  2  0
  7  1  1  0
M  END
$$$$
