No_2584-complexes_sdf/6BKW-FPZ/2024-09-17-14-21-01/
     RDKit          3D

 20 21  0  0  0  0  0  0  0  0999 V2000
   -7.9040    3.9820   27.1177 C   0  0  0  0  0  0  0  0  0  0  0  0
   -8.2057    2.8231   26.8733 C   0  0  0  0  0  0  0  0  0  0  0  0
   -8.7695    5.0740   26.7916 C   0  0  1  0  0  0  0  0  0  0  0  0
   -8.4337    6.4678   27.0913 C   0  0  0  0  0  0  0  0  0  0  0  0
   -7.3775    1.6806   27.3986 C   0  0  0  0  0  0  0  0  0  0  0  0
   -6.0814    2.1205   27.8112 C   0  0  0  0  0  0  0  0  0  0  0  0
   -5.7220    3.4538   27.9612 C   0  0  0  0  0  0  0  0  0  0  0  0
   -6.5839    4.3786   27.6583 C   0  0  0  0  0  0  0  0  0  0  0  0
   -9.8602    4.8270   25.9201 C   0  0  2  0  0  0  0  0  0  0  0  0
   -5.1528    1.0088   28.2419 C   0  0  0  0  0  0  0  0  0  0  0  0
   -5.4444   -0.0847   28.5469 O   0  0  0  0  0  0  0  0  0  0  0  0
   -3.8366    1.3776   28.2961 O   0  0  0  0  0  0  0  0  0  0  0  0
   -8.2397    7.5541   26.2364 C   0  0  0  0  0  0  0  0  0  0  0  0
  -10.8577    4.0653   26.3345 C   0  0  0  0  0  0  0  0  0  0  0  0
  -11.4241    4.2458   27.5629 C   0  0  0  0  0  0  0  0  0  0  0  0
  -12.5375    3.4738   28.0637 C   0  0  0  0  0  0  0  0  0  0  0  0
  -13.0647    2.5600   27.1836 C   0  0  0  0  0  0  0  0  0  0  0  0
  -12.5837    2.3965   25.9274 C   0  0  0  0  0  0  0  0  0  0  0  0
  -11.5294    3.1382   25.5134 C   0  0  0  0  0  0  0  0  0  0  0  0
   -9.7774    5.2541   24.5278 C   0  0  0  0  0  0  0  0  0  0  0  0
  3  4  1  6
  3  9  1  0
  6 10  1  0
 10 11  2  0
 10 12  1  0
  4 13  2  0
  9 14  1  0
  9 20  1  6
  3  1  1  0
 14 15  2  0
 15 16  1  0
 16 17  2  0
 17 18  1  0
 18 19  2  0
 19 14  1  0
  1  2  2  0
  2  5  1  0
  5  6  2  0
  6  7  1  0
  7  8  2  0
  8  1  1  0
M  END
$$$$
