No_2652-complexes_sdf/6BKW-FPZ/2024-09-17-14-21-01/
     RDKit          3D

 40 44  0  0  0  0  0  0  0  0999 V2000
   -7.9040    3.9820   27.1177 C   0  0  0  0  0  0  0  0  0  0  0  0
   -9.0711    4.3164   27.0630 C   0  0  0  0  0  0  0  0  0  0  0  0
   -9.5182    5.5541   27.5777 C   0  0  0  0  0  0  0  0  0  0  0  0
   -6.9424    4.7983   27.8424 C   0  0  0  0  0  0  0  0  0  0  0  0
   -7.3526    5.9739   28.3909 C   0  0  0  0  0  0  0  0  0  0  0  0
   -8.6479    6.3742   28.2169 C   0  0  0  0  0  0  0  0  0  0  0  0
  -10.1718    3.5826   26.3029 C   0  0  0  0  0  0  0  0  0  0  0  0
  -11.2794    3.3613   26.6180 C   0  0  0  0  0  0  0  0  0  0  0  0
  -11.6418    3.0894   27.8620 C   0  0  0  0  0  0  0  0  0  0  0  0
  -12.9526    2.8331   28.4544 C   0  0  0  0  0  0  0  0  0  0  0  0
  -13.9768    2.9868   27.5852 C   0  0  0  0  0  0  0  0  0  0  0  0
  -13.7646    3.3736   26.2926 C   0  0  0  0  0  0  0  0  0  0  0  0
  -12.5008    3.6390   25.8177 C   0  0  0  0  0  0  0  0  0  0  0  0
   -9.4610    2.3149   25.8487 C   0  0  0  0  0  0  0  0  0  0  0  0
   -9.6265    1.9313   24.4932 C   0  0  0  0  0  0  0  0  0  0  0  0
   -9.0174    0.7667   24.0252 C   0  0  0  0  0  0  0  0  0  0  0  0
   -8.1187    0.0235   24.8046 C   0  0  0  0  0  0  0  0  0  0  0  0
   -7.9626    0.4077   26.1433 C   0  0  0  0  0  0  0  0  0  0  0  0
   -8.5719    1.5676   26.6699 C   0  0  0  0  0  0  0  0  0  0  0  0
   -7.0600   -0.2845   27.1481 C   0  0  2  0  0  0  0  0  0  0  0  0
   -5.8813   -0.1274   27.3877 C   0  0  0  0  0  0  0  0  0  0  0  0
   -5.0511   -0.5701   28.3368 C   0  0  0  0  0  0  0  0  0  0  0  0
   -3.7285   -0.1027   28.7121 C   0  0  0  0  0  0  0  0  0  0  0  0
   -3.2479    0.8756   27.8104 C   0  0  0  0  0  0  0  0  0  0  0  0
   -3.9804    1.4233   26.8106 C   0  0  0  0  0  0  0  0  0  0  0  0
   -5.2100    1.0207   26.5802 C   0  0  0  0  0  0  0  0  0  0  0  0
   -7.8039   -1.4489   27.7615 C   0  0  0  0  0  0  0  0  0  0  0  0
   -8.7279   -1.1430   28.5268 N   0  0  0  0  0  0  0  0  0  0  0  0
   -2.9531   -0.5614   29.8081 C   0  0  0  0  0  0  0  0  0  0  0  0
   -1.8495   -0.9377   29.5214 F   0  0  0  0  0  0  0  0  0  0  0  0
   -2.9096    0.4606   30.8084 F   0  0  0  0  0  0  0  0  0  0  0  0
   -3.6688   -1.5386   30.4325 F   0  0  0  0  0  0  0  0  0  0  0  0
   -9.4863   -2.0979   29.2287 C   0  0  0  0  0  0  0  0  0  0  0  0
   -8.8807   -3.2302   29.5606 C   0  0  0  0  0  0  0  0  0  0  0  0
   -7.1834   -2.6799   27.7724 C   0  0  0  0  0  0  0  0  0  0  0  0
   -6.0943   -3.0427   27.0445 C   0  0  0  0  0  0  0  0  0  0  0  0
   -7.7972   -3.6517   28.7343 C   0  0  0  0  0  0  0  0  0  0  0  0
   -5.3563   -4.0436   27.3750 C   0  0  0  0  0  0  0  0  0  0  0  0
   -4.2236   -4.4845   26.5727 C   0  0  0  0  0  0  0  0  0  0  0  0
   -3.9185   -3.7345   25.4467 C   0  0  0  0  0  0  0  0  0  0  0  0
  2  7  1  0
  7  8  1  0
  7 14  1  0
 20 18  1  6
 20 27  1  0
 23 29  1  0
 29 30  1  0
 29 31  1  0
 29 32  1  0
 35 36  1  0
 36 38  2  3
 38 39  1  0
 39 40  2  0
 20 21  1  0
  1  2  2  0
  2  3  1  0
  3  6  2  0
  6  5  1  0
  5  4  2  0
  4  1  1  0
 27 28  2  0
 28 33  1  0
 33 34  2  0
 34 37  1  0
 37 35  2  0
 35 27  1  0
 14 15  2  0
 15 16  1  0
 16 17  2  0
 17 18  1  0
 18 19  2  0
 19 14  1  0
  8  9  2  0
  9 10  1  0
 10 11  2  0
 11 12  1  0
 12 13  2  0
 13  8  1  0
 21 22  2  0
 22 23  1  0
 23 24  2  0
 24 25  1  0
 25 26  2  0
 26 21  1  0
M  END
$$$$
