No_280-complexes_sdf/6BKW-FPZ/2024-09-17-14-21-01/
     RDKit          3D

 30 34  0  0  0  0  0  0  0  0999 V2000
   -7.7129    4.2099   27.0854 C   0  0  0  0  0  0  0  0  0  0  0  0
   -7.7814    5.1722   27.8972 C   0  0  0  0  0  0  0  0  0  0  0  0
   -8.7889    3.2468   27.2220 C   0  0  0  0  0  0  0  0  0  0  0  0
   -8.7402    2.0341   26.3990 C   0  0  0  0  0  0  0  0  0  0  0  0
   -8.9680    5.6562   28.5183 C   0  0  0  0  0  0  0  0  0  0  0  0
   -9.9491    3.5176   27.8853 C   0  0  0  0  0  0  0  0  0  0  0  0
  -11.0433    2.6723   27.9685 C   0  0  0  0  0  0  0  0  0  0  0  0
   -9.9808    4.7588   28.5990 C   0  0  0  0  0  0  0  0  0  0  0  0
   -9.6081    1.5238   25.7157 C   0  0  1  0  0  0  0  0  0  0  0  0
  -10.9268    1.1341   26.2406 C   0  0  0  0  0  0  0  0  0  0  0  0
  -11.6724    1.8087   27.1304 C   0  0  0  0  0  0  0  0  0  0  0  0
   -9.4536    1.3042   24.2557 C   0  0  0  0  0  0  0  0  0  0  0  0
   -8.9828    0.1237   23.8300 C   0  0  0  0  0  0  0  0  0  0  0  0
   -9.8563    2.3462   23.3478 C   0  0  0  0  0  0  0  0  0  0  0  0
   -9.7715    2.1888   22.0014 C   0  0  0  0  0  0  0  0  0  0  0  0
   -8.8527   -0.0505   22.3911 C   0  0  0  0  0  0  0  0  0  0  0  0
   -9.2091    1.0068   21.5272 C   0  0  0  0  0  0  0  0  0  0  0  0
  -10.1089    3.2502   21.0872 C   0  0  0  0  0  0  0  0  0  0  0  0
  -10.3644    4.4874   21.6500 C   0  0  0  0  0  0  0  0  0  0  0  0
  -10.4457    4.6640   23.0676 C   0  0  0  0  0  0  0  0  0  0  0  0
  -10.2248    3.6762   23.8914 C   0  0  0  0  0  0  0  0  0  0  0  0
  -11.5425   -0.0168   25.5607 C   0  0  0  0  0  0  0  0  0  0  0  0
  -12.8169    0.0756   25.1672 C   0  0  0  0  0  0  0  0  0  0  0  0
  -13.4413   -1.0313   24.5465 C   0  0  0  0  0  0  0  0  0  0  0  0
  -12.6399   -2.1423   24.2650 C   0  0  0  0  0  0  0  0  0  0  0  0
  -11.5635   -2.1967   24.6505 C   0  0  0  0  0  0  0  0  0  0  0  0
  -10.8224   -1.1942   25.3827 C   0  0  0  0  0  0  0  0  0  0  0  0
   -8.3380   -1.2959   21.8433 C   0  0  0  0  0  0  0  0  0  0  0  0
   -8.9339   -1.8848   20.7680 C   0  0  0  0  0  0  0  0  0  0  0  0
   -8.4287   -3.0724   20.2176 C   0  0  0  0  0  0  0  0  0  0  0  0
  3  4  1  0
  6  7  1  0
  4  9  1  0
  9 10  1  0
  7 11  2  0
 10 11  2  0
  9 12  1  6
 10 22  1  0
 16 28  1  0
 28 29  2  3
 29 30  1  0
 15 18  2  0
 18 19  1  0
 19 20  2  0
 20 21  1  0
 21 14  2  0
  1  2  2  0
  2  5  1  0
  5  8  2  0
  8  6  1  0
  6  3  2  0
  3  1  1  0
 22 23  2  0
 23 24  1  0
 24 25  2  0
 25 26  1  0
 26 27  2  0
 27 22  1  0
 12 13  2  0
 13 16  1  0
 16 17  2  0
 17 15  1  0
 15 14  1  0
 14 12  1  0
M  END
$$$$
