No_2777-complexes_sdf/6BKW-FPZ/2024-09-17-14-21-01/
     RDKit          3D

  9  9  0  0  0  0  0  0  0  0999 V2000
   -7.2496    3.8871   27.4508 C   0  0  0  0  0  0  0  0  0  0  0  0
   -7.6161    2.7143   27.1523 C   0  0  0  0  0  0  0  0  0  0  0  0
   -7.1618    1.8631   27.5232 C   0  0  0  0  0  0  0  0  0  0  0  0
   -8.0384    5.0866   27.3232 C   0  0  0  0  0  0  0  0  0  0  0  0
   -9.1208    5.0561   26.6921 C   0  0  0  0  0  0  0  0  0  0  0  0
   -8.9843    2.7165   26.6396 C   0  0  0  0  0  0  0  0  0  0  0  0
   -9.6839    3.8262   26.3379 C   0  0  0  0  0  0  0  0  0  0  0  0
   -7.4924    0.4673   27.3175 N   0  0  0  0  0  0  0  0  0  0  0  0
   -8.7476    0.3362   26.8078 C   0  0  0  0  0  0  0  0  0  0  0  0
  2  3  1  0
  3  8  2  3
  8  9  1  0
  1  2  2  0
  2  6  1  0
  6  7  2  0
  7  5  1  0
  5  4  2  0
  4  1  1  0
M  END
$$$$
