No_2903-complexes_sdf/6BKW-FPZ/2024-09-17-14-21-01/
     RDKit          3D

 20 22  0  0  0  0  0  0  0  0999 V2000
   -7.7129    4.2099   27.0854 C   0  0  0  0  0  0  0  0  0  0  0  0
   -8.2112    3.0637   26.9225 C   0  0  0  0  0  0  0  0  0  0  0  0
   -7.0021    4.5281   28.2396 C   0  0  0  0  0  0  0  0  0  0  0  0
   -9.4237    2.7810   26.2714 C   0  0  0  0  0  0  0  0  0  0  0  0
   -9.9782    1.4391   26.2525 C   0  0  0  0  0  0  0  0  0  0  0  0
   -9.2622    0.4320   26.8729 C   0  0  0  0  0  0  0  0  0  0  0  0
   -8.0745    0.6657   27.5462 C   0  0  0  0  0  0  0  0  0  0  0  0
   -7.4723    1.9739   27.6189 C   0  0  0  0  0  0  0  0  0  0  0  0
   -6.8855    5.9211   28.5310 C   0  0  0  0  0  0  0  0  0  0  0  0
   -8.6136    5.3606   26.9145 C   0  0  0  0  0  0  0  0  0  0  0  0
   -8.5969    6.4288   27.2435 C   0  0  0  0  0  0  0  0  0  0  0  0
   -7.5938    6.8593   28.1374 C   0  0  0  0  0  0  0  0  0  0  0  0
   -9.7667    4.9295   25.9086 C   0  0  0  0  0  0  0  0  0  0  0  0
  -10.1493    3.6798   25.6821 N   0  0  0  0  0  0  0  0  0  0  0  0
  -11.1927    3.4551   24.7835 C   0  0  0  0  0  0  0  0  0  0  0  0
  -11.0100    3.8929   23.4961 C   0  0  0  0  0  0  0  0  0  0  0  0
  -11.7863    3.7484   22.4379 C   0  0  0  0  0  0  0  0  0  0  0  0
  -11.3638    4.1584   21.1614 C   0  0  0  0  0  0  0  0  0  0  0  0
  -12.0323    3.7684   20.0185 C   0  0  0  0  0  0  0  0  0  0  0  0
  -13.2730    3.1337   20.1153 C   0  0  0  0  0  0  0  0  0  0  0  0
  1  2  1  0
 10 13  1  0
  4 14  1  0
 13 14  1  0
 14 15  1  0
 15 16  1  0
 16 17  2  3
 17 18  1  0
 18 19  2  3
 19 20  1  0
  1  3  2  0
  3  9  1  0
  9 12  2  0
 12 11  1  0
 11 10  2  0
 10  1  1  0
  2  4  2  0
  4  5  1  0
  5  6  2  0
  6  7  1  0
  7  8  2  0
  8  2  1  0
M  END
$$$$
