No_2088-complexes_sdf/6BKW-FPZ/2024-09-17-14-21-01/
     RDKit          3D

 16 18  0  0  0  0  0  0  0  0999 V2000
   -7.9040    3.9820   27.1177 C   0  0  0  0  0  0  0  0  0  0  0  0
   -9.0711    4.3164   27.0630 C   0  0  0  0  0  0  0  0  0  0  0  0
   -9.8698    3.9665   25.9494 C   0  0  0  0  0  0  0  0  0  0  0  0
   -6.9515    4.6878   28.0207 C   0  0  0  0  0  0  0  0  0  0  0  0
  -11.1591    3.4833   26.0876 C   0  0  0  0  0  0  0  0  0  0  0  0
  -11.8798    3.8261   27.2705 C   0  0  0  0  0  0  0  0  0  0  0  0
  -11.1448    4.2455   28.4095 C   0  0  0  0  0  0  0  0  0  0  0  0
   -9.8033    4.3975   28.3535 C   0  0  0  0  0  0  0  0  0  0  0  0
   -5.6810    4.1493   28.3009 C   0  0  0  0  0  0  0  0  0  0  0  0
   -5.3595    2.8429   27.7838 C   0  0  0  0  0  0  0  0  0  0  0  0
   -6.3616    2.0156   27.2700 C   0  0  0  0  0  0  0  0  0  0  0  0
   -7.5630    2.5832   26.9581 C   0  0  0  0  0  0  0  0  0  0  0  0
   -8.4987    1.7015   26.3356 C   0  0  0  0  0  0  0  0  0  0  0  0
   -8.1633    0.3608   26.0528 C   0  0  0  0  0  0  0  0  0  0  0  0
   -6.8947   -0.0871   26.5428 C   0  0  0  0  0  0  0  0  0  0  0  0
   -5.9669    0.7127   27.1119 C   0  0  0  0  0  0  0  0  0  0  0  0
  1  2  1  0
 12 13  2  0
 13 14  1  0
 14 15  2  0
 15 16  1  0
 16 11  2  0
  2  3  2  0
  3  5  1  0
  5  6  2  0
  6  7  1  0
  7  8  2  0
  8  2  1  0
  1  4  2  0
  4  9  1  0
  9 10  2  0
 10 11  1  0
 11 12  1  0
 12  1  1  0
M  END
$$$$
