No_2101-complexes_sdf/6BKW-FPZ/2024-09-17-14-21-01/
     RDKit          3D

 14 15  0  0  0  0  0  0  0  0999 V2000
   -7.7129    4.2099   27.0854 C   0  0  0  0  0  0  0  0  0  0  0  0
   -7.7814    5.1722   27.8972 C   0  0  0  0  0  0  0  0  0  0  0  0
   -8.8255    3.2789   27.1191 C   0  0  0  0  0  0  0  0  0  0  0  0
   -8.7530    2.0643   26.3119 C   0  0  0  0  0  0  0  0  0  0  0  0
   -9.8958    1.4956   25.8527 C   0  0  1  0  0  0  0  0  0  0  0  0
   -9.7349    0.3805   25.0766 C   0  0  0  0  0  0  0  0  0  0  0  0
  -10.8277   -0.1311   24.3749 C   0  0  0  0  0  0  0  0  0  0  0  0
   -9.0138    5.7075   28.4420 C   0  0  0  0  0  0  0  0  0  0  0  0
   -9.9240    3.7739   27.8027 C   0  0  0  0  0  0  0  0  0  0  0  0
  -11.0859    2.8471   27.8523 C   0  0  0  0  0  0  0  0  0  0  0  0
   -9.9992    4.8990   28.4827 C   0  0  0  0  0  0  0  0  0  0  0  0
  -12.2444    3.0287   28.5774 C   0  0  0  0  0  0  0  0  0  0  0  0
  -11.0004    1.6811   26.8682 C   0  0  0  0  0  0  0  0  0  0  0  0
  -10.6729   -1.2497   23.5129 C   0  0  0  0  0  0  0  0  0  0  0  0
  3  4  1  0
  5  4  1  1
  5  6  1  0
  6  7  2  3
  9 10  1  0
 10 12  2  0
  5 13  1  0
 10 13  1  0
  7 14  1  0
  1  2  2  0
  2  8  1  0
  8 11  2  0
 11  9  1  0
  9  3  2  0
  3  1  1  0
M  END
$$$$
