No_2707-complexes_sdf/6BKW-FPZ/2024-09-17-14-21-01/
     RDKit          3D

 30 32  0  0  0  0  0  0  0  0999 V2000
   -7.2496    3.8871   27.4508 C   0  0  0  0  0  0  0  0  0  0  0  0
   -7.9379    4.9063   27.8518 C   0  0  0  0  0  0  0  0  0  0  0  0
   -9.3460    4.8223   27.8695 C   0  0  0  0  0  0  0  0  0  0  0  0
   -7.8628    2.6163   27.1065 C   0  0  0  0  0  0  0  0  0  0  0  0
   -7.1773    1.4959   26.7593 C   0  0  0  0  0  0  0  0  0  0  0  0
   -9.2781    2.5892   27.1482 C   0  0  0  0  0  0  0  0  0  0  0  0
  -10.0064    3.6800   27.5696 C   0  0  0  0  0  0  0  0  0  0  0  0
   -7.6496    0.6805   25.9201 O   0  0  0  0  0  0  0  0  0  0  0  0
   -6.1498    1.0951   27.5776 O   0  0  0  0  0  0  0  0  0  0  0  0
  -11.4755    3.5776   27.7202 C   0  0  1  0  0  0  0  0  0  0  0  0
  -11.9256    3.1040   28.9217 C   0  0  0  0  0  0  0  0  0  0  0  0
  -11.6911    2.1469   29.4482 C   0  0  0  0  0  0  0  0  0  0  0  0
  -12.6476    1.2028   29.3215 C   0  0  0  0  0  0  0  0  0  0  0  0
  -13.9671    1.3518   29.7677 C   0  0  0  0  0  0  0  0  0  0  0  0
  -12.9793    4.0357   29.6412 C   0  0  0  0  0  0  0  0  0  0  0  0
  -14.7007    2.4694   29.9720 C   0  0  0  0  0  0  0  0  0  0  0  0
  -14.2465    3.7033   29.8687 C   0  0  0  0  0  0  0  0  0  0  0  0
   -7.3137    6.1113   28.1595 N   0  0  0  0  0  0  0  0  0  0  0  0
   -5.5627   -0.1242   27.6946 C   0  0  0  0  0  0  0  0  0  0  0  0
   -4.6392   -0.0177   28.6763 C   0  0  0  0  0  0  0  0  0  0  0  0
   -4.0064   -1.3107   29.0785 C   0  0  0  0  0  0  0  0  0  0  0  0
   -4.3103   -2.4101   28.3707 C   0  0  0  0  0  0  0  0  0  0  0  0
   -5.8431   -1.3192   27.4233 C   0  0  0  0  0  0  0  0  0  0  0  0
   -5.3320   -2.4232   27.6215 C   0  0  0  0  0  0  0  0  0  0  0  0
  -12.2552    4.1395   26.6750 C   0  0  0  0  0  0  0  0  0  0  0  0
   -4.0205    1.4252   29.4439 Cl  0  0  0  0  0  0  0  0  0  0  0  0
  -12.7187    3.2673   25.6448 C   0  0  0  0  0  0  0  0  0  0  0  0
  -11.9987    2.8169   24.8494 C   0  0  0  0  0  0  0  0  0  0  0  0
  -10.8309    3.3527   24.4564 C   0  0  0  0  0  0  0  0  0  0  0  0
   -9.9682    2.8234   23.3995 C   0  0  0  0  0  0  0  0  0  0  0  0
  4  5  1  0
  5  8  2  0
  5  9  1  0
  7 10  1  0
 10 11  1  0
 11 12  2  0
 12 13  1  0
 13 14  2  0
 11 15  1  0
 14 16  1  0
 15 17  1  0
 16 17  2  0
  2 18  1  0
  9 19  1  0
 10 25  1  1
 20 26  1  0
 25 27  1  0
 27 28  1  0
 28 29  2  3
 29 30  1  0
 19 20  2  0
 20 21  1  0
 21 22  2  0
 22 24  1  0
 24 23  2  0
 23 19  1  0
  1  2  2  0
  2  3  1  0
  3  7  2  0
  7  6  1  0
  6  4  2  0
  4  1  1  0
M  END
$$$$
