No_2463-complexes_sdf/6BKW-FPZ/2024-09-17-14-21-01/
     RDKit          3D

 37 40  0  0  0  0  0  0  0  0999 V2000
   -7.9040    3.9820   27.1177 C   0  0  0  0  0  0  0  0  0  0  0  0
   -9.0711    4.3164   27.0630 C   0  0  0  0  0  0  0  0  0  0  0  0
   -9.5294    5.4517   27.7215 C   0  0  0  0  0  0  0  0  0  0  0  0
   -6.9328    4.7309   27.8881 C   0  0  0  0  0  0  0  0  0  0  0  0
   -7.3377    5.8421   28.5537 C   0  0  0  0  0  0  0  0  0  0  0  0
   -8.6411    6.2609   28.3972 C   0  0  0  0  0  0  0  0  0  0  0  0
  -10.1663    3.5968   26.3594 C   0  0  0  0  0  0  0  0  0  0  0  0
  -11.1679    3.0053   26.8661 C   0  0  0  0  0  0  0  0  0  0  0  0
  -11.1684    2.9716   28.3837 C   0  0  0  0  0  0  0  0  0  0  0  0
   -9.9482    3.5750   24.9156 C   0  0  0  0  0  0  0  0  0  0  0  0
  -10.5431    3.5244   24.1045 C   0  0  0  0  0  0  0  0  0  0  0  0
  -10.2894    3.5381   22.6602 C   0  0  0  0  0  0  0  0  0  0  0  0
  -12.2445    2.1524   29.0364 C   0  0  0  0  0  0  0  0  0  0  0  0
  -12.0719    3.3808   24.2961 C   0  0  0  0  0  0  0  0  0  0  0  0
  -12.3176    2.7404   26.0842 C   0  0  0  0  0  0  0  0  0  0  0  0
  -10.0178    4.7609   22.1850 F   0  0  0  0  0  0  0  0  0  0  0  0
  -11.3277    3.1161   21.8620 F   0  0  0  0  0  0  0  0  0  0  0  0
   -9.3796    2.6229   22.5361 F   0  0  0  0  0  0  0  0  0  0  0  0
  -13.2200    2.8191   29.7366 C   0  0  0  0  0  0  0  0  0  0  0  0
  -14.2219    2.0546   30.3722 C   0  0  0  0  0  0  0  0  0  0  0  0
  -14.2416    0.6900   30.0794 C   0  0  0  0  0  0  0  0  0  0  0  0
  -13.3417    0.0794   29.2884 C   0  0  0  0  0  0  0  0  0  0  0  0
  -12.2730    0.8368   28.7151 C   0  0  0  0  0  0  0  0  0  0  0  0
  -11.1113    0.0366   27.7959 Cl  0  0  0  0  0  0  0  0  0  0  0  0
   -5.6800    4.2195   28.0472 O   0  0  0  0  0  0  0  0  0  0  0  0
  -15.2242    2.7408   31.2443 C   0  0  0  0  0  0  0  0  0  0  0  0
  -15.1651    2.7477   32.4262 N   0  0  0  0  0  0  0  0  0  0  0  0
  -15.8950    3.4796   33.2102 C   0  0  0  0  0  0  0  0  0  0  0  0
  -16.3029    3.3745   30.5592 C   0  0  0  0  0  0  0  0  0  0  0  0
  -17.2095    4.1717   31.3288 C   0  0  0  0  0  0  0  0  0  0  0  0
  -17.0267    4.1604   32.7569 C   0  0  0  0  0  0  0  0  0  0  0  0
  -13.9692    2.1102   33.1595 C   0  0  0  0  0  0  0  0  0  0  0  0
  -13.5283    2.8927   34.3160 C   0  0  0  0  0  0  0  0  0  0  0  0
  -12.3295    3.5463   34.2988 C   0  0  0  0  0  0  0  0  0  0  0  0
  -11.8413    4.2320   35.4459 C   0  0  0  0  0  0  0  0  0  0  0  0
  -12.5479    4.2478   36.6222 C   0  0  0  0  0  0  0  0  0  0  0  0
  -12.0422    4.9452   37.7449 C   0  0  0  0  0  0  0  0  0  0  0  0
  2  7  1  0
  8  9  1  0
 11 12  1  0
 12 16  1  0
 12 17  1  0
 12 18  1  0
 23 24  1  0
  4 25  1  0
 20 26  1  0
 26 27  1  0
 27 28  1  0
 26 29  1  0
 30 31  1  0
 27 32  1  0
 32 33  1  0
 33 34  2  3
 34 35  1  0
 35 36  2  3
 36 37  1  0
  9 13  1  0
 29 30  1  0
 31 28  1  0
  7  8  2  0
  8 15  1  0
 15 14  2  0
 14 11  1  0
 11 10  2  0
 10  7  1  0
  1  2  2  0
  2  3  1  0
  3  6  2  0
  6  5  1  0
  5  4  2  0
  4  1  1  0
 13 19  2  0
 19 20  1  0
 20 21  2  0
 21 22  1  0
 22 23  2  0
 23 13  1  0
M  END
$$$$
