No_2468-complexes_sdf/6BKW-FPZ/2024-09-17-14-21-01/
     RDKit          3D

 25 28  0  0  0  0  0  0  0  0999 V2000
   -7.9040    3.9820   27.1177 C   0  0  0  0  0  0  0  0  0  0  0  0
   -8.2057    2.8231   26.8733 C   0  0  0  0  0  0  0  0  0  0  0  0
   -8.7463    4.9537   27.6708 C   0  0  0  0  0  0  0  0  0  0  0  0
  -10.0901    4.5164   28.0293 C   0  0  0  0  0  0  0  0  0  0  0  0
   -9.5729    2.3483   27.2382 C   0  0  0  0  0  0  0  0  0  0  0  0
  -10.4170    3.2421   27.8238 C   0  0  0  0  0  0  0  0  0  0  0  0
   -8.1820    6.7266   27.9608 Br  0  0  0  0  0  0  0  0  0  0  0  0
   -9.8588    0.9196   27.0111 C   0  0  0  0  0  0  0  0  0  0  0  0
   -9.2514    0.0493   27.2895 C   0  0  0  0  0  0  0  0  0  0  0  0
   -9.6093   -1.3858   27.1760 C   0  0  0  0  0  0  0  0  0  0  0  0
  -10.8905   -1.6016   26.7069 C   0  0  0  0  0  0  0  0  0  0  0  0
  -11.2612    0.5130   26.7070 C   0  0  0  0  0  0  0  0  0  0  0  0
  -11.6999   -0.6405   26.5658 C   0  0  0  0  0  0  0  0  0  0  0  0
  -13.1107   -0.9315   26.1196 C   0  0  0  0  0  0  0  0  0  0  0  0
  -13.5302   -1.8938   25.8068 C   0  0  0  0  0  0  0  0  0  0  0  0
  -14.8867   -2.1110   25.4044 C   0  0  0  0  0  0  0  0  0  0  0  0
  -15.7178   -0.9942   25.3702 C   0  0  0  0  0  0  0  0  0  0  0  0
  -15.2443    0.2074   25.7382 C   0  0  0  0  0  0  0  0  0  0  0  0
  -13.9328    0.3842   26.1740 C   0  0  0  0  0  0  0  0  0  0  0  0
  -16.1290    1.4098   25.7384 C   0  0  0  0  0  0  0  0  0  0  0  0
  -16.6480    1.7919   26.8838 C   0  0  0  0  0  0  0  0  0  0  0  0
  -16.3137    2.0825   24.5343 C   0  0  0  0  0  0  0  0  0  0  0  0
  -17.5757    2.8836   26.9634 C   0  0  0  0  0  0  0  0  0  0  0  0
  -17.2017    3.2005   24.5755 C   0  0  0  0  0  0  0  0  0  0  0  0
  -17.7860    3.6019   25.7779 C   0  0  0  0  0  0  0  0  0  0  0  0
  3  7  1  0
  5  8  1  0
 13 14  1  0
 18 20  1  0
 14 15  2  0
 15 16  1  0
 16 17  2  0
 17 18  1  0
 18 19  2  0
 19 14  1  0
 20 21  2  0
 21 23  1  0
 23 25  2  0
 25 24  1  0
 24 22  2  0
 22 20  1  0
  1  2  2  0
  2  5  1  0
  5  6  2  0
  6  4  1  0
  4  3  2  0
  3  1  1  0
  8  9  2  0
  9 10  1  0
 10 11  2  0
 11 13  1  0
 13 12  2  0
 12  8  1  0
M  END
$$$$
