No_2018-complexes_sdf/6BKW-FPZ/2024-09-17-14-21-01/
     RDKit          3D

 14 15  0  0  0  0  0  0  0  0999 V2000
   -7.9040    3.9820   27.1177 C   0  0  0  0  0  0  0  0  0  0  0  0
   -9.0711    4.3164   27.0630 C   0  0  0  0  0  0  0  0  0  0  0  0
   -9.9692    3.7224   26.1073 C   0  0  0  0  0  0  0  0  0  0  0  0
   -6.9787    4.6761   28.1003 C   0  0  0  0  0  0  0  0  0  0  0  0
   -9.4538    2.6801   25.3673 C   0  0  0  0  0  0  0  0  0  0  0  0
   -8.5031    2.0702   25.8804 C   0  0  0  0  0  0  0  0  0  0  0  0
   -7.5587    2.6813   26.7915 C   0  0  0  0  0  0  0  0  0  0  0  0
  -10.4232    2.0112   24.4317 C   0  0  0  0  0  0  0  0  0  0  0  0
  -10.7994    2.4578   23.3961 C   0  0  0  0  0  0  0  0  0  0  0  0
  -10.4112    3.9100   23.0488 C   0  0  0  0  0  0  0  0  0  0  0  0
  -10.7985    4.4821   21.7723 C   0  0  0  0  0  0  0  0  0  0  0  0
  -11.3952    3.7018   20.8730 C   0  0  0  0  0  0  0  0  0  0  0  0
  -11.6987    2.3332   21.0796 C   0  0  0  0  0  0  0  0  0  0  0  0
  -11.3455    1.7748   22.2992 C   0  0  0  0  0  0  0  0  0  0  0  0
  1  4  1  0
  5  8  1  0
  8  9  1  0
  9 10  2  0
 10 11  1  0
 11 12  2  0
 12 13  1  0
 13 14  2  0
 14  9  1  0
  1  2  2  0
  2  3  1  0
  3  5  2  0
  5  6  1  0
  6  7  2  0
  7  1  1  0
M  END
$$$$
