No_2870-complexes_sdf/6BKW-FPZ/2024-09-17-14-21-01/
     RDKit          3D

 20 21  0  0  0  0  0  0  0  0999 V2000
   -7.2496    3.8871   27.4508 C   0  0  0  0  0  0  0  0  0  0  0  0
   -7.9379    4.9063   27.8518 C   0  0  0  0  0  0  0  0  0  0  0  0
   -9.3460    4.8223   27.8695 C   0  0  0  0  0  0  0  0  0  0  0  0
   -7.8628    2.6163   27.1065 C   0  0  0  0  0  0  0  0  0  0  0  0
   -9.2787    2.5744   27.1970 C   0  0  0  0  0  0  0  0  0  0  0  0
  -10.0108    3.6770   27.6340 C   0  0  0  0  0  0  0  0  0  0  0  0
  -11.4834    3.5674   27.7432 C   0  0  0  0  0  0  0  0  0  0  0  0
  -12.3295    3.8838   27.2730 C   0  0  0  0  0  0  0  0  0  0  0  0
  -12.1286    4.7255   25.9621 C   0  0  0  0  0  0  0  0  0  0  0  0
  -10.9881    4.4376   25.3274 C   0  0  0  0  0  0  0  0  0  0  0  0
  -10.9885    3.5764   24.1131 C   0  0  0  0  0  0  0  0  0  0  0  0
  -11.8663    3.2650   23.7195 C   0  0  0  0  0  0  0  0  0  0  0  0
  -11.8511    2.4187   22.3971 C   0  0  0  0  0  0  0  0  0  0  0  0
  -10.6329    2.1818   21.8714 C   0  0  0  0  0  0  0  0  0  0  0  0
   -9.4785    2.6839   22.4401 C   0  0  0  0  0  0  0  0  0  0  0  0
   -9.5477    3.4260   23.6294 C   0  0  0  0  0  0  0  0  0  0  0  0
   -6.9420    1.5694   26.7754 C   0  0  0  0  0  0  0  0  0  0  0  0
   -5.9866    1.2614   27.5641 O   0  0  0  0  0  0  0  0  0  0  0  0
   -7.2861    0.7745   25.8226 O   0  0  0  0  0  0  0  0  0  0  0  0
   -7.1561    6.4087   28.2566 Cl  0  0  0  0  0  0  0  0  0  0  0  0
  6  7  1  0
  7  8  2  3
  8  9  1  0
  9 10  1  0
 10 11  1  0
  4 17  1  0
 17 18  2  0
 17 19  1  0
  2 20  1  0
 11 12  2  0
 12 13  1  0
 13 14  2  0
 14 15  1  0
 15 16  2  0
 16 11  1  0
  1  2  2  0
  2  3  1  0
  3  6  2  0
  6  5  1  0
  5  4  2  0
  4  1  1  0
M  END
$$$$
