No_2044-complexes_sdf/6BKW-FPZ/2024-09-17-14-21-01/
     RDKit          3D

 10  9  0  0  0  0  0  0  0  0999 V2000
   -7.7129    4.2099   27.0854 C   0  0  0  0  0  0  0  0  0  0  0  0
   -8.9133    4.4736   27.0998 C   0  0  1  0  0  0  0  0  0  0  0  0
   -9.4643    5.5426   27.7628 C   0  0  0  0  0  0  0  0  0  0  0  0
   -9.8091    3.6358   26.2841 C   0  0  0  0  0  0  0  0  0  0  0  0
  -10.5514    4.0993   25.5100 C   0  0  0  0  0  0  0  0  0  0  0  0
   -7.3906    3.6447   28.4976 Cl  0  0  0  0  0  0  0  0  0  0  0  0
  -11.3552    3.2963   24.6928 C   0  0  2  0  0  0  0  0  0  0  0  0
  -12.2517    3.8965   23.7158 C   0  0  0  0  0  0  0  0  0  0  0  0
  -11.9185    2.2116   25.2882 C   0  0  0  0  0  0  0  0  0  0  0  0
  -10.9981    1.4971   26.2457 C   0  0  0  0  0  0  0  0  0  0  0  0
  1  2  1  0
  2  3  1  6
  2  4  1  0
  4  5  2  3
  1  6  1  0
  5  7  1  0
  7  8  1  1
  7  9  1  0
  9 10  2  0
M  END
$$$$
