No_227-complexes_sdf/6BKW-FPZ/2024-09-17-14-21-01/
     RDKit          3D

 14 15  0  0  0  0  0  0  0  0999 V2000
   -7.7129    4.2099   27.0854 C   0  0  0  0  0  0  0  0  0  0  0  0
   -8.2112    3.0637   26.9225 C   0  0  0  0  0  0  0  0  0  0  0  0
   -9.4446    2.8304   26.1868 C   0  0  0  0  0  0  0  0  0  0  0  0
   -8.4697    5.3956   26.7238 C   0  0  0  0  0  0  0  0  0  0  0  0
   -9.6172    5.2111   25.9513 C   0  0  0  0  0  0  0  0  0  0  0  0
  -10.0424    3.9782   25.6873 C   0  0  0  0  0  0  0  0  0  0  0  0
   -7.3626    2.0251   27.4510 N   0  0  0  0  0  0  0  0  0  0  0  0
   -7.7009    0.7492   27.4479 C   0  0  0  0  0  0  0  0  0  0  0  0
   -6.7310   -0.1580   27.0718 C   0  0  0  0  0  0  0  0  0  0  0  0
   -6.2528   -0.9666   27.9417 C   0  0  0  0  0  0  0  0  0  0  0  0
   -5.4593   -1.7710   27.9125 C   0  0  0  0  0  0  0  0  0  0  0  0
   -4.7527   -1.9171   26.5939 C   0  0  0  0  0  0  0  0  0  0  0  0
   -5.1329   -1.1207   25.5687 C   0  0  0  0  0  0  0  0  0  0  0  0
   -6.1529   -0.1523   25.8168 C   0  0  0  0  0  0  0  0  0  0  0  0
  2  7  1  0
  7  8  1  0
  8  9  1  0
  1  2  2  0
  2  3  1  0
  3  6  2  0
  6  5  1  0
  5  4  2  0
  4  1  1  0
  9 10  2  0
 10 11  1  0
 11 12  2  0
 12 13  1  0
 13 14  2  0
 14  9  1  0
M  END
$$$$
