No_2957-complexes_sdf/6BKW-FPZ/2024-09-17-14-21-01/
     RDKit          3D

 29 32  0  0  0  0  0  0  0  0999 V2000
   -7.9040    3.9820   27.1177 C   0  0  0  0  0  0  0  0  0  0  0  0
   -9.0711    4.3164   27.0630 C   0  0  0  0  0  0  0  0  0  0  0  0
   -9.9692    3.7224   26.1073 C   0  0  0  0  0  0  0  0  0  0  0  0
   -7.4776    2.6994   26.6283 C   0  0  0  0  0  0  0  0  0  0  0  0
   -8.4406    1.9440   25.9776 C   0  0  0  0  0  0  0  0  0  0  0  0
   -9.6379    2.5001   25.6881 C   0  0  0  0  0  0  0  0  0  0  0  0
   -6.9751    4.6208   27.9552 O   0  0  0  0  0  0  0  0  0  0  0  0
  -10.7183    1.9127   24.7912 C   0  0  0  0  0  0  0  0  0  0  0  0
  -11.3534    1.0136   25.0419 C   0  0  0  0  0  0  0  0  0  0  0  0
  -11.2291    0.4184   26.4201 C   0  0  0  0  0  0  0  0  0  0  0  0
  -11.0224    0.9158   27.4293 C   0  0  0  0  0  0  0  0  0  0  0  0
  -11.1179    0.2113   28.7968 C   0  0  0  0  0  0  0  0  0  0  0  0
  -11.4387   -1.1271   28.8160 C   0  0  0  0  0  0  0  0  0  0  0  0
  -11.7193   -1.7352   27.6194 C   0  0  0  0  0  0  0  0  0  0  0  0
  -11.6907   -1.0696   26.4621 C   0  0  0  0  0  0  0  0  0  0  0  0
   -7.4568    5.8010   28.4164 C   0  0  0  0  0  0  0  0  0  0  0  0
  -10.6684    2.5442   23.4167 C   0  0  0  0  0  0  0  0  0  0  0  0
  -10.8205    3.8969   23.2457 C   0  0  0  0  0  0  0  0  0  0  0  0
  -10.7964    4.5244   21.9739 C   0  0  0  0  0  0  0  0  0  0  0  0
  -10.5470    3.7168   20.8764 C   0  0  0  0  0  0  0  0  0  0  0  0
  -10.4898    1.7921   22.3140 C   0  0  0  0  0  0  0  0  0  0  0  0
  -10.4176    2.3469   21.0572 C   0  0  0  0  0  0  0  0  0  0  0  0
   -9.3645    5.6995   27.4809 C   0  0  0  0  0  0  0  0  0  0  0  0
   -8.5751    6.3874   28.1863 C   0  0  0  0  0  0  0  0  0  0  0  0
  -12.2114    0.4556   24.2740 F   0  0  0  0  0  0  0  0  0  0  0  0
  -12.1230   -3.1586   27.6367 C   0  0  0  0  0  0  0  0  0  0  0  0
  -12.7982   -3.6767   26.9737 O   0  0  0  0  0  0  0  0  0  0  0  0
  -11.5415   -3.9393   28.6655 F   0  0  0  0  0  0  0  0  0  0  0  0
   -8.0917    0.3435   25.4375 Cl  0  0  0  0  0  0  0  0  0  0  0  0
  1  7  1  0
  6  8  1  0
  8  9  2  3
  9 10  1  0
  7 16  1  0
  8 17  1  0
  2 23  1  0
 16 24  1  0
 23 24  2  0
  9 25  1  0
 14 26  1  0
 26 27  2  0
 26 28  1  0
  5 29  1  0
 17 18  2  0
 18 19  1  0
 19 20  2  0
 20 22  1  0
 22 21  2  0
 21 17  1  0
  1  2  1  0
  2  3  2  0
  3  6  1  0
  6  5  2  0
  5  4  1  0
  4  1  2  0
 10 11  2  0
 11 12  1  0
 12 13  2  0
 13 14  1  0
 14 15  2  0
 15 10  1  0
M  END
$$$$
