No_2337-complexes_sdf/6BKW-FPZ/2024-09-17-14-21-01/
     RDKit          3D

 16 16  0  0  0  0  0  0  0  0999 V2000
   -7.2496    3.8871   27.4508 C   0  0  0  0  0  0  0  0  0  0  0  0
   -7.6161    2.7143   27.1523 C   0  0  0  0  0  0  0  0  0  0  0  0
   -8.6007    2.2754   27.5344 C   0  0  0  0  0  0  0  0  0  0  0  0
   -8.1854    4.8453   27.8143 C   0  0  0  0  0  0  0  0  0  0  0  0
   -9.4545    4.3962   28.1445 C   0  0  0  0  0  0  0  0  0  0  0  0
   -9.7278    3.0696   27.9932 C   0  0  0  0  0  0  0  0  0  0  0  0
   -7.7582    6.4945   28.0976 Cl  0  0  0  0  0  0  0  0  0  0  0  0
   -9.0893    0.7726   27.3456 C   0  0  0  0  0  0  0  0  0  0  0  0
   -9.3080    0.4280   26.1318 F   0  0  0  0  0  0  0  0  0  0  0  0
   -8.0972    0.0405   27.9168 F   0  0  0  0  0  0  0  0  0  0  0  0
  -10.1995    0.4927   28.0889 F   0  0  0  0  0  0  0  0  0  0  0  0
  -10.9321    2.6343   28.2943 O   0  0  0  0  0  0  0  0  0  0  0  0
  -11.5875    1.6908   27.9297 C   0  0  0  0  0  0  0  0  0  0  0  0
  -11.7981    1.5109   26.7361 F   0  0  0  0  0  0  0  0  0  0  0  0
  -12.3815    1.0459   28.7232 F   0  0  0  0  0  0  0  0  0  0  0  0
  -12.4872    2.1625   28.1281 F   0  0  0  0  0  0  0  0  0  0  0  0
  4  7  1  0
  3  8  1  0
  8  9  1  0
  8 10  1  0
  8 11  1  0
  6 12  1  0
 12 13  1  0
 13 14  1  0
 13 15  1  0
 13 16  1  0
  1  2  2  0
  2  3  1  0
  3  6  2  0
  6  5  1  0
  5  4  2  0
  4  1  1  0
M  END
$$$$
