No_2107-complexes_sdf/6BKW-FPZ/2024-09-17-14-21-01/
     RDKit          3D

 40 46  0  0  0  0  0  0  0  0999 V2000
   -7.9040    3.9820   27.1177 C   0  0  0  0  0  0  0  0  0  0  0  0
   -8.2057    2.8231   26.8733 C   0  0  0  0  0  0  0  0  0  0  0  0
   -9.2962    2.4021   26.1155 C   0  0  0  0  0  0  0  0  0  0  0  0
   -6.8682    4.5169   28.0704 C   0  0  0  0  0  0  0  0  0  0  0  0
  -10.0578    3.3688   25.5520 C   0  0  0  0  0  0  0  0  0  0  0  0
   -9.6997    4.7480   25.6981 C   0  0  0  0  0  0  0  0  0  0  0  0
   -8.6783    5.1111   26.5262 C   0  0  0  0  0  0  0  0  0  0  0  0
   -8.4112    6.4758   26.8405 C   0  0  0  0  0  0  0  0  0  0  0  0
   -7.3398    6.8507   27.6200 C   0  0  0  0  0  0  0  0  0  0  0  0
   -6.7173    5.8635   28.2811 C   0  0  0  0  0  0  0  0  0  0  0  0
  -11.1478    3.0677   24.5927 C   0  0  0  0  0  0  0  0  0  0  0  0
  -11.2043    3.7064   23.4547 C   0  0  0  0  0  0  0  0  0  0  0  0
  -12.2263    3.4760   22.4612 C   0  0  0  0  0  0  0  0  0  0  0  0
  -13.1673    2.5300   22.7415 C   0  0  0  0  0  0  0  0  0  0  0  0
  -12.0781    2.0988   24.7978 C   0  0  0  0  0  0  0  0  0  0  0  0
  -13.0949    1.8688   23.9227 C   0  0  0  0  0  0  0  0  0  0  0  0
   -7.3676    1.6572   27.4997 C   0  0  0  0  0  0  0  0  0  0  0  0
   -7.6987    0.3063   27.2620 C   0  0  0  0  0  0  0  0  0  0  0  0
   -8.9899    0.0749   26.8970 C   0  0  0  0  0  0  0  0  0  0  0  0
   -9.7393    1.0495   26.1223 C   0  0  0  0  0  0  0  0  0  0  0  0
  -14.0136    0.9185   24.1398 F   0  0  0  0  0  0  0  0  0  0  0  0
   -6.6508   -0.9566   28.0975 Br  0  0  0  0  0  0  0  0  0  0  0  0
   -9.3948   -1.2204   26.8007 O   0  0  0  0  0  0  0  0  0  0  0  0
  -10.2951   -1.5576   27.6008 C   0  0  0  0  0  0  0  0  0  0  0  0
  -11.3099   -1.8348   27.2710 C   0  0  0  0  0  0  0  0  0  0  0  0
  -12.4983   -2.1189   28.1519 C   0  0  0  0  0  0  0  0  0  0  0  0
  -12.2611   -2.1496   29.5073 C   0  0  0  0  0  0  0  0  0  0  0  0
  -10.9964   -1.8985   29.9733 C   0  0  0  0  0  0  0  0  0  0  0  0
  -10.0281   -1.5615   29.1072 C   0  0  0  0  0  0  0  0  0  0  0  0
  -13.3683   -2.5401   30.4429 C   0  0  0  0  0  0  0  0  0  0  0  0
  -13.1210   -3.1096   31.5078 C   0  0  0  0  0  0  0  0  0  0  0  0
  -11.7654   -3.4062   31.9040 C   0  0  0  0  0  0  0  0  0  0  0  0
  -10.6977   -2.6319   31.2656 C   0  0  0  0  0  0  0  0  0  0  0  0
   -9.3134   -2.7367   31.7759 C   0  0  0  0  0  0  0  0  0  0  0  0
   -9.0604   -2.6438   33.0435 C   0  0  0  0  0  0  0  0  0  0  0  0
   -7.7117   -2.6521   33.5363 C   0  0  0  0  0  0  0  0  0  0  0  0
   -6.6750   -2.6964   32.5735 C   0  0  0  0  0  0  0  0  0  0  0  0
   -6.9635   -2.7741   31.2552 C   0  0  0  0  0  0  0  0  0  0  0  0
   -8.2796   -2.7701   30.8323 C   0  0  0  0  0  0  0  0  0  0  0  0
   -5.4196   -2.6777   33.0075 F   0  0  0  0  0  0  0  0  0  0  0  0
  5 11  1  0
 16 21  1  0
 18 22  1  0
 19 23  1  0
 23 24  1  0
 33 34  1  0
 37 40  1  0
 24 25  2  0
 25 26  1  0
 26 27  2  0
 28 29  2  0
 29 24  1  0
  1  2  1  0
  3  5  1  0
  5  6  2  0
  6  7  1  0
  2  3  2  0
  3 20  1  0
 20 19  2  0
 19 18  1  0
 18 17  2  0
 17  2  1  0
 11 12  2  0
 12 13  1  0
 13 14  2  0
 14 16  1  0
 16 15  2  0
 15 11  1  0
 27 28  1  0
 28 33  1  0
 33 32  2  0
 32 31  1  0
 31 30  2  0
 30 27  1  0
 34 35  2  0
 35 36  1  0
 36 37  2  0
 37 38  1  0
 38 39  2  0
 39 34  1  0
  1  4  2  0
  4 10  1  0
 10  9  2  0
  9  8  1  0
  8  7  2  0
  7  1  1  0
M  END
$$$$
