No_2281-complexes_sdf/6BKW-FPZ/2024-09-17-14-21-01/
     RDKit          3D

 12 12  0  0  0  0  0  0  0  0999 V2000
   -7.2496    3.8871   27.4508 C   0  0  0  0  0  0  0  0  0  0  0  0
   -8.5096    4.0291   27.2770 C   0  0  0  0  0  0  0  0  0  0  0  0
   -9.3451    2.8786   26.9046 C   0  0  0  0  0  0  0  0  0  0  0  0
   -6.6065    2.5680   27.5073 C   0  0  0  0  0  0  0  0  0  0  0  0
   -7.3425    1.5554   27.2658 C   0  0  0  0  0  0  0  0  0  0  0  0
   -8.6749    1.6466   27.0123 C   0  0  0  0  0  0  0  0  0  0  0  0
   -9.1231    5.3710   27.1937 C   0  0  0  0  0  0  0  0  0  0  0  0
   -8.3086    6.5108   27.0464 C   0  0  0  0  0  0  0  0  0  0  0  0
   -8.3596    7.6830   26.7391 C   0  0  0  0  0  0  0  0  0  0  0  0
   -6.7209    0.2068   27.3192 C   0  0  0  0  0  0  0  0  0  0  0  0
   -7.3216   -0.8884   27.3117 C   0  0  0  0  0  0  0  0  0  0  0  0
   -6.7188   -2.0879   27.3907 C   0  0  0  0  0  0  0  0  0  0  0  0
  2  7  1  0
  7  8  1  0
  8  9  2  0
  5 10  1  0
 10 11  2  3
 11 12  1  0
  1  2  2  0
  2  3  1  0
  3  6  2  0
  6  5  1  0
  5  4  2  0
  4  1  1  0
M  END
$$$$
