No_2056-complexes_sdf/6BKW-FPZ/2024-09-17-14-21-01/
     RDKit          3D

 25 27  0  0  0  0  0  0  0  0999 V2000
   -7.7129    4.2099   27.0854 C   0  0  0  0  0  0  0  0  0  0  0  0
   -7.7814    5.1722   27.8972 C   0  0  0  0  0  0  0  0  0  0  0  0
   -8.8998    3.8713   26.3707 C   0  0  0  0  0  0  0  0  0  0  0  0
   -8.9563    2.6796   25.5490 C   0  0  2  0  0  0  0  0  0  0  0  0
   -8.8131    6.1334   27.9344 C   0  0  0  0  0  0  0  0  0  0  0  0
   -9.9804    5.8121   27.1929 C   0  0  0  0  0  0  0  0  0  0  0  0
   -9.9861    4.6836   26.4532 C   0  0  0  0  0  0  0  0  0  0  0  0
  -10.0770    2.4815   24.3825 S   0  0  0  0  0  0  0  0  0  0  0  0
   -8.1294    1.5492   25.8685 C   0  0  0  0  0  0  0  0  0  0  0  0
   -7.7370    1.3228   27.1465 C   0  0  0  0  0  0  0  0  0  0  0  0
   -7.0633    0.2021   27.4026 C   0  0  0  0  0  0  0  0  0  0  0  0
   -6.4159   -0.0348   28.6884 C   0  0  0  0  0  0  0  0  0  0  0  0
   -5.1254   -0.6029   28.8294 C   0  0  0  0  0  0  0  0  0  0  0  0
   -4.5872   -1.1793   27.6534 C   0  0  0  0  0  0  0  0  0  0  0  0
   -5.1721   -0.9671   26.4353 C   0  0  0  0  0  0  0  0  0  0  0  0
   -6.2704   -0.2797   26.2822 C   0  0  0  0  0  0  0  0  0  0  0  0
   -4.5837   -0.8004   30.1748 C   0  0  0  0  0  0  0  0  0  0  0  0
   -5.2233   -0.7673   31.2276 N   0  0  0  0  0  0  0  0  0  0  0  0
   -4.5513   -0.7309   32.4397 C   0  0  0  0  0  0  0  0  0  0  0  0
   -3.2924   -0.6544   30.1196 O   0  0  0  0  0  0  0  0  0  0  0  0
   -5.2876   -1.3462   33.5256 C   0  0  0  0  0  0  0  0  0  0  0  0
   -4.6269   -1.4636   34.7500 C   0  0  0  0  0  0  0  0  0  0  0  0
   -3.3146   -0.9806   34.9632 C   0  0  0  0  0  0  0  0  0  0  0  0
   -2.6227   -0.4591   33.8146 C   0  0  0  0  0  0  0  0  0  0  0  0
   -3.2524   -0.3913   32.5780 C   0  0  0  0  0  0  0  0  0  0  0  0
  3  4  1  0
  4  8  1  1
  4  9  1  0
  9 10  1  0
 13 17  1  0
 17 18  1  0
 18 19  1  0
 17 20  2  0
 10 11  1  0
 11 12  2  0
 12 13  1  0
 13 14  2  0
 14 15  1  0
 15 16  2  0
 16 11  1  0
 19 21  2  0
 21 22  1  0
 22 23  2  0
 23 24  1  0
 24 25  2  0
 25 19  1  0
  1  2  2  0
  2  5  1  0
  5  6  2  0
  6  7  1  0
  7  3  2  0
  3  1  1  0
M  END
$$$$
