No_2808-complexes_sdf/6BKW-FPZ/2024-09-17-14-21-01/
     RDKit          3D

 19 21  0  0  0  0  0  0  0  0999 V2000
   -7.9040    3.9820   27.1177 C   0  0  0  0  0  0  0  0  0  0  0  0
   -7.8663    4.8694   27.9238 C   0  0  0  0  0  0  0  0  0  0  0  0
   -9.0491    3.8523   26.2542 C   0  0  0  0  0  0  0  0  0  0  0  0
   -8.7661    5.9491   27.9690 C   0  0  0  0  0  0  0  0  0  0  0  0
   -9.1798    2.6731   25.4786 C   0  0  0  0  0  0  0  0  0  0  0  0
   -9.8964    5.8854   27.1460 C   0  0  0  0  0  0  0  0  0  0  0  0
   -9.9958    4.8034   26.3470 C   0  0  0  0  0  0  0  0  0  0  0  0
   -9.9648    2.7297   24.3779 N   0  0  0  0  0  0  0  0  0  0  0  0
  -10.2785    2.0010   23.7199 C   0  0  0  0  0  0  0  0  0  0  0  0
   -9.9019    0.6506   23.9561 C   0  0  0  0  0  0  0  0  0  0  0  0
   -8.7171    1.5174   25.7612 N   0  0  0  0  0  0  0  0  0  0  0  0
   -9.0377    0.4382   25.0376 C   0  0  0  0  0  0  0  0  0  0  0  0
  -11.0987    2.1193   22.5926 N   0  0  0  0  0  0  0  0  0  0  0  0
  -11.3774    3.4108   22.1996 C   0  0  0  0  0  0  0  0  0  0  0  0
  -11.4578    1.1792   21.7515 C   0  0  0  0  0  0  0  0  0  0  0  0
   -6.7578    5.0934   28.7423 F   0  0  0  0  0  0  0  0  0  0  0  0
  -12.2413    1.4587   20.7552 C   0  0  0  0  0  0  0  0  0  0  0  0
  -12.2272    3.7885   21.1821 C   0  0  0  0  0  0  0  0  0  0  0  0
  -12.5838    2.7405   20.3454 C   0  0  0  0  0  0  0  0  0  0  0  0
  3  5  1  0
  9 13  1  0
 13 14  1  0
 13 15  1  0
  2 16  1  0
 17 19  1  0
 18 19  1  0
 14 18  1  0
 17 15  1  0
  1  2  2  0
  2  4  1  0
  4  6  2  0
  6  7  1  0
  7  3  2  0
  3  1  1  0
  5  8  2  0
  8  9  1  0
  9 10  2  0
 10 12  1  0
 12 11  2  0
 11  5  1  0
M  END
$$$$
