No_2282-complexes_sdf/6BKW-FPZ/2024-09-17-14-21-01/
     RDKit          3D

 29 32  0  0  0  0  0  0  0  0999 V2000
   -7.9040    3.9820   27.1177 C   0  0  0  0  0  0  0  0  0  0  0  0
   -7.8663    4.8694   27.9238 C   0  0  0  0  0  0  0  0  0  0  0  0
   -9.0501    3.8017   26.2617 C   0  0  0  0  0  0  0  0  0  0  0  0
  -10.0189    4.7608   26.3707 C   0  0  0  0  0  0  0  0  0  0  0  0
   -8.6973    5.9722   27.8968 C   0  0  0  0  0  0  0  0  0  0  0  0
   -9.8216    5.8946   27.1241 C   0  0  0  0  0  0  0  0  0  0  0  0
   -8.9544    2.5594   25.4484 C   0  0  0  0  0  0  0  0  0  0  0  0
   -8.6296    1.3862   26.0657 C   0  0  0  0  0  0  0  0  0  0  0  0
   -8.7654    0.2352   25.3873 C   0  0  0  0  0  0  0  0  0  0  0  0
   -9.2452    0.2804   24.0792 C   0  0  0  0  0  0  0  0  0  0  0  0
   -9.6183    1.4747   23.4631 C   0  0  0  0  0  0  0  0  0  0  0  0
   -9.5610    2.6158   24.1923 C   0  0  0  0  0  0  0  0  0  0  0  0
  -10.1427    1.4857   22.0921 C   0  0  0  0  0  0  0  0  0  0  0  0
  -11.4606    1.4440   21.9628 C   0  0  0  0  0  0  0  0  0  0  0  0
  -11.9880    1.5227   20.6598 C   0  0  0  0  0  0  0  0  0  0  0  0
  -13.3519    1.4504   20.4031 C   0  0  0  0  0  0  0  0  0  0  0  0
  -14.2036    1.3895   21.5039 C   0  0  0  0  0  0  0  0  0  0  0  0
  -13.7297    1.3536   22.7631 C   0  0  0  0  0  0  0  0  0  0  0  0
  -12.3856    1.4014   23.0380 C   0  0  0  0  0  0  0  0  0  0  0  0
   -9.2712    1.8654   21.2697 O   0  0  0  0  0  0  0  0  0  0  0  0
   -8.3075   -1.0201   25.9827 C   0  0  0  0  0  0  0  0  0  0  0  0
   -7.4110   -1.4991   26.0382 C   0  0  0  0  0  0  0  0  0  0  0  0
   -6.0911   -0.8906   25.4970 C   0  0  0  0  0  0  0  0  0  0  0  0
   -4.9960   -1.0119   25.8244 C   0  0  0  0  0  0  0  0  0  0  0  0
   -3.8454   -0.2552   25.2878 C   0  0  0  0  0  0  0  0  0  0  0  0
   -2.8235    0.0684   26.2782 C   0  0  0  0  0  0  0  0  0  0  0  0
   -2.8854   -0.2584   27.3775 C   0  0  0  0  0  0  0  0  0  0  0  0
   -3.8479   -0.9441   28.0843 C   0  0  0  0  0  0  0  0  0  0  0  0
   -4.9675   -1.1577   27.2872 C   0  0  0  0  0  0  0  0  0  0  0  0
  3  7  1  0
 11 13  1  0
 13 14  1  0
 13 20  2  0
  9 21  1  0
 21 22  2  3
 22 23  1  0
 23 24  1  0
 14 15  2  0
 15 16  1  0
 16 17  2  0
 17 18  1  0
 18 19  2  0
 19 14  1  0
 24 25  2  0
 25 26  1  0
 26 27  2  0
 27 28  1  0
 28 29  2  0
 29 24  1  0
  1  2  2  0
  2  5  1  0
  5  6  2  0
  6  4  1  0
  4  3  2  0
  3  1  1  0
  7  8  2  0
  8  9  1  0
  9 10  2  0
 10 11  1  0
 11 12  2  0
 12  7  1  0
M  END
$$$$
