No_2901-complexes_sdf/6BKW-FPZ/2024-09-17-14-21-01/
     RDKit          3D

 21 23  0  0  0  0  0  0  0  0999 V2000
   -7.9040    3.9820   27.1177 C   0  0  0  0  0  0  0  0  0  0  0  0
   -9.0711    4.3164   27.0630 C   0  0  0  0  0  0  0  0  0  0  0  0
   -9.5182    5.5541   27.5777 C   0  0  0  0  0  0  0  0  0  0  0  0
   -7.4468    2.6843   26.6499 C   0  0  0  0  0  0  0  0  0  0  0  0
   -8.3856    1.7878   26.2216 C   0  0  0  0  0  0  0  0  0  0  0  0
   -9.6812    2.2328   26.0889 C   0  0  0  0  0  0  0  0  0  0  0  0
  -10.0147    3.4312   26.5259 C   0  0  0  0  0  0  0  0  0  0  0  0
   -7.9132    0.4733   25.8127 C   0  0  0  0  0  0  0  0  0  0  0  0
   -8.1299    0.0169   24.7318 N   0  0  0  0  0  0  0  0  0  0  0  0
   -8.6674   -0.7635   24.3112 C   0  0  0  0  0  0  0  0  0  0  0  0
   -9.2655   -1.6168   24.8899 C   0  0  0  0  0  0  0  0  0  0  0  0
   -8.8642   -1.6634   26.3069 C   0  0  0  0  0  0  0  0  0  0  0  0
   -8.5555   -0.5189   26.9417 C   0  0  0  0  0  0  0  0  0  0  0  0
   -8.6239    6.6844   27.4499 C   0  0  0  0  0  0  0  0  0  0  0  0
   -9.4560   -2.7646   27.1992 C   0  0  0  0  0  0  0  0  0  0  0  0
   -8.9717   -2.7322   28.4965 C   0  0  0  0  0  0  0  0  0  0  0  0
   -9.7761   -3.1961   29.5062 C   0  0  0  0  0  0  0  0  0  0  0  0
   -9.3050   -3.1129   30.8477 C   0  0  0  0  0  0  0  0  0  0  0  0
   -8.0337   -2.6870   31.1758 C   0  0  0  0  0  0  0  0  0  0  0  0
   -7.2210   -2.2245   30.1608 C   0  0  0  0  0  0  0  0  0  0  0  0
   -7.7040   -2.2212   28.8655 C   0  0  0  0  0  0  0  0  0  0  0  0
  2  3  1  0
  5  8  1  0
  3 14  2  0
 12 15  1  0
 15 16  1  0
  1  2  2  0
  2  7  1  0
  7  6  2  0
  6  5  1  0
  5  4  2  0
  4  1  1  0
  8  9  2  0
  9 10  1  0
 10 11  2  0
 11 12  1  0
 12 13  2  0
 13  8  1  0
 16 17  2  0
 17 18  1  0
 18 19  2  0
 19 20  1  0
 20 21  2  0
 21 16  1  0
M  END
$$$$
