No_2408-complexes_sdf/6BKW-FPZ/2024-09-17-14-21-01/
     RDKit          3D

 21 23  0  0  0  0  0  0  0  0999 V2000
   -7.2496    3.8871   27.4508 C   0  0  0  0  0  0  0  0  0  0  0  0
   -8.5096    4.0291   27.2770 C   0  0  0  0  0  0  0  0  0  0  0  0
   -9.3502    2.8685   26.8763 C   0  0  0  0  0  0  0  0  0  0  0  0
   -6.6288    2.5513   27.4938 C   0  0  0  0  0  0  0  0  0  0  0  0
   -7.4365    1.4714   27.2032 C   0  0  0  0  0  0  0  0  0  0  0  0
  -10.6956    3.0464   26.6122 C   0  0  0  0  0  0  0  0  0  0  0  0
   -8.7780    1.6365   26.9046 C   0  0  0  0  0  0  0  0  0  0  0  0
  -11.4709    2.2497   26.6900 C   0  0  0  0  0  0  0  0  0  0  0  0
  -10.9767    0.8087   26.8870 C   0  0  0  0  0  0  0  0  0  0  0  0
   -9.6348    0.5481   26.9620 C   0  0  0  0  0  0  0  0  0  0  0  0
   -5.1729    2.6455   27.7832 C   0  0  0  0  0  0  0  0  0  0  0  0
   -4.4919    1.4286   27.6098 N   0  0  0  0  0  0  0  0  0  0  0  0
   -4.3008    0.5967   28.5990 C   0  0  2  0  0  0  0  0  0  0  0  0
   -3.3515   -0.4738   28.4442 C   0  0  0  0  0  0  0  0  0  0  0  0
   -3.8750   -1.7126   28.4499 C   0  0  0  0  0  0  0  0  0  0  0  0
   -5.1000   -1.7015   28.9309 C   0  0  1  0  0  0  0  0  0  0  0  0
   -5.4175   -0.2631   29.0930 C   0  0  0  0  0  0  0  0  0  0  0  0
   -6.1912   -2.3643   28.0854 C   0  0  0  0  0  0  0  0  0  0  0  0
   -6.2876   -2.1347   26.8919 C   0  0  0  0  0  0  0  0  0  0  0  0
   -7.3331   -2.6762   26.0729 C   0  0  0  0  0  0  0  0  0  0  0  0
   -8.3162   -3.3944   26.6822 C   0  0  0  0  0  0  0  0  0  0  0  0
  4 11  1  0
 11 12  1  0
 13 12  1  6
 13 14  1  0
 14 15  1  0
 16 15  1  6
 13 17  1  0
 16 17  1  0
 16 18  1  0
 18 19  2  3
 19 20  1  0
 20 21  2  0
  1  2  2  0
  2  3  1  0
  7  5  1  0
  5  4  2  0
  4  1  1  0
  3  6  2  0
  6  8  1  0
  8  9  2  0
  9 10  1  0
 10  7  2  0
  7  3  1  0
M  END
$$$$
