No_2311-complexes_sdf/6BKW-FPZ/2024-09-17-14-21-01/
     RDKit          3D

 18 19  0  0  0  0  0  0  0  0999 V2000
   -7.9040    3.9820   27.1177 C   0  0  0  0  0  0  0  0  0  0  0  0
   -7.8663    4.8694   27.9238 C   0  0  0  0  0  0  0  0  0  0  0  0
   -9.0806    3.1428   27.1220 C   0  0  0  0  0  0  0  0  0  0  0  0
   -9.1366    1.9856   26.2314 C   0  0  0  0  0  0  0  0  0  0  0  0
   -6.7456    5.8315   27.9275 C   0  0  0  0  0  0  0  0  0  0  0  0
   -9.7983    0.9143   26.5159 C   0  0  0  0  0  0  0  0  0  0  0  0
  -10.7856    0.9995   27.6215 C   0  0  0  0  0  0  0  0  0  0  0  0
  -10.7836    2.1108   28.4557 C   0  0  0  0  0  0  0  0  0  0  0  0
   -9.8201    3.1792   28.2153 C   0  0  0  0  0  0  0  0  0  0  0  0
  -11.7419   -0.0898   27.9023 C   0  0  0  0  0  0  0  0  0  0  0  0
  -11.2814   -1.0442   28.3191 F   0  0  0  0  0  0  0  0  0  0  0  0
  -12.7094    0.4379   28.7666 F   0  0  0  0  0  0  0  0  0  0  0  0
  -12.4267   -0.3810   26.7275 F   0  0  0  0  0  0  0  0  0  0  0  0
   -6.9766    6.9717   28.8197 C   0  0  0  0  0  0  0  0  0  0  0  0
   -8.1550    7.2559   28.9143 C   0  0  0  0  0  0  0  0  0  0  0  0
   -8.8949    5.8239   28.3513 N   0  0  0  0  0  0  0  0  0  0  0  0
   -8.3878    7.7336   27.7633 C   0  0  0  0  0  0  0  0  0  0  0  0
   -9.3727    7.3218   26.7362 C   0  0  0  0  0  0  0  0  0  0  0  0
  1  2  1  0
  2  5  1  0
  7 10  1  0
 10 11  1  0
 10 12  1  0
 10 13  1  0
  5 14  1  0
 14 15  2  0
  2 16  2  0
 15 16  1  0
 15 17  1  0
 17 18  1  0
  1  3  1  0
  3  4  2  0
  4  6  1  0
  6  7  2  0
  7  8  1  0
  8  9  2  0
  9  3  1  0
M  END
$$$$
