No_2117-complexes_sdf/6BKW-FPZ/2024-09-17-14-21-01/
     RDKit          3D

 26 29  0  0  0  0  0  0  0  0999 V2000
   -7.9040    3.9820   27.1177 C   0  0  0  0  0  0  0  0  0  0  0  0
   -9.0711    4.3164   27.0630 C   0  0  0  0  0  0  0  0  0  0  0  0
   -9.8698    3.9665   25.9495 C   0  0  0  0  0  0  0  0  0  0  0  0
   -7.0332    4.5030   28.2025 C   0  0  0  0  0  0  0  0  0  0  0  0
  -10.9909    4.7237   25.5958 C   0  0  0  0  0  0  0  0  0  0  0  0
   -7.5840    5.4918   28.9036 N   0  0  0  0  0  0  0  0  0  0  0  0
  -11.6517    5.1678   26.7607 C   0  0  0  0  0  0  0  0  0  0  0  0
  -11.0925    5.2111   28.0330 C   0  0  0  0  0  0  0  0  0  0  0  0
   -9.7770    4.8942   28.1775 C   0  0  0  0  0  0  0  0  0  0  0  0
   -8.9699    5.5858   28.9821 C   0  0  0  0  0  0  0  0  0  0  0  0
   -5.7255    4.2978   28.2134 N   0  0  0  0  0  0  0  0  0  0  0  0
  -11.7198    4.3789   24.3801 C   0  0  0  0  0  0  0  0  0  0  0  0
  -10.9587    4.6382   23.1514 C   0  0  0  0  0  0  0  0  0  0  0  0
  -10.9684    3.8961   22.2876 C   0  0  0  0  0  0  0  0  0  0  0  0
  -12.0466    2.9732   22.0417 C   0  0  0  0  0  0  0  0  0  0  0  0
  -12.9088    2.8194   23.1388 C   0  0  0  0  0  0  0  0  0  0  0  0
  -12.6647    3.4573   24.2973 C   0  0  0  0  0  0  0  0  0  0  0  0
  -14.0389    1.8650   22.9551 C   0  0  0  0  0  0  0  0  0  0  0  0
  -14.5502    1.2790   24.0557 C   0  0  0  0  0  0  0  0  0  0  0  0
  -15.5098    0.3781   23.9249 C   0  0  0  0  0  0  0  0  0  0  0  0
  -16.0356    0.0650   22.6669 C   0  0  0  0  0  0  0  0  0  0  0  0
  -15.5183    0.6849   21.5764 C   0  0  0  0  0  0  0  0  0  0  0  0
  -14.4807    1.5970   21.7001 C   0  0  0  0  0  0  0  0  0  0  0  0
  -16.0221    0.3610   20.2226 C   0  0  0  0  0  0  0  0  0  0  0  0
  -16.1187   -0.5200   19.6493 O   0  0  0  0  0  0  0  0  0  0  0  0
  -16.5999    1.5028   19.6409 O   0  0  0  0  0  0  0  0  0  0  0  0
  4 11  1  0
  5 12  1  0
 16 18  1  0
 22 24  1  0
 24 25  2  0
 24 26  1  0
 12 13  2  0
 13 14  1  0
 14 15  2  0
 15 16  1  0
 16 17  2  0
 17 12  1  0
  2  3  1  0
  3  5  2  0
  5  7  1  0
  7  8  2  0
  8  9  1  0
 18 19  2  0
 19 20  1  0
 20 21  2  0
 21 22  1  0
 22 23  2  0
 23 18  1  0
  1  2  2  0
  2  9  1  0
  9 10  2  0
 10  6  1  0
  6  4  2  0
  4  1  1  0
M  END
$$$$
