No_2192-complexes_sdf/6BKW-FPZ/2024-09-17-14-21-01/
     RDKit          3D

  9  9  0  0  0  0  0  0  0  0999 V2000
   -7.7129    4.2099   27.0854 C   0  0  0  0  0  0  0  0  0  0  0  0
   -8.2112    3.0637   26.9225 C   0  0  0  0  0  0  0  0  0  0  0  0
   -8.4224    5.2106   27.8516 C   0  0  0  0  0  0  0  0  0  0  0  0
   -9.5628    2.7160   27.4089 C   0  0  0  0  0  0  0  0  0  0  0  0
  -10.0598    1.3992   27.3077 C   0  0  0  0  0  0  0  0  0  0  0  0
   -9.7708    4.9875   28.2192 C   0  0  0  0  0  0  0  0  0  0  0  0
  -10.2729    3.7070   28.0678 C   0  0  0  0  0  0  0  0  0  0  0  0
   -9.1322    0.5380   27.6178 F   0  0  0  0  0  0  0  0  0  0  0  0
  -11.0994    1.0758   26.9770 F   0  0  0  0  0  0  0  0  0  0  0  0
  4  5  1  0
  5  8  1  0
  5  9  1  0
  1  2  2  0
  2  4  1  0
  4  7  2  0
  7  6  1  0
  6  3  2  0
  3  1  1  0
M  END
$$$$
