No_2579-complexes_sdf/6BKW-FPZ/2024-09-17-14-21-01/
     RDKit          3D

 28 30  0  0  0  0  0  0  0  0999 V2000
   -7.7129    4.2099   27.0854 C   0  0  0  0  0  0  0  0  0  0  0  0
   -8.9133    4.4736   27.0998 C   0  0  0  0  0  0  0  0  0  0  0  0
   -9.4616    5.6470   27.6290 C   0  0  0  0  0  0  0  0  0  0  0  0
   -7.2326    2.9175   26.7557 C   0  0  0  0  0  0  0  0  0  0  0  0
   -8.1546    1.9086   26.5054 C   0  0  0  0  0  0  0  0  0  0  0  0
   -9.4618    2.2289   26.4212 C   0  0  0  0  0  0  0  0  0  0  0  0
   -9.8481    3.4572   26.7692 C   0  0  0  0  0  0  0  0  0  0  0  0
   -7.5985    0.5725   26.2149 C   0  0  0  0  0  0  0  0  0  0  0  0
   -7.6273    0.0848   25.1711 O   0  0  0  0  0  0  0  0  0  0  0  0
   -7.0954   -0.1346   27.2864 O   0  0  0  0  0  0  0  0  0  0  0  0
   -8.7287    6.7114   27.3673 F   0  0  0  0  0  0  0  0  0  0  0  0
  -10.6812    5.9745   27.0455 F   0  0  0  0  0  0  0  0  0  0  0  0
   -9.6402    5.5860   28.9199 F   0  0  0  0  0  0  0  0  0  0  0  0
   -7.0286   -1.4436   27.4153 C   0  0  0  0  0  0  0  0  0  0  0  0
   -7.3089   -2.0392   28.7274 C   0  0  0  0  0  0  0  0  0  0  0  0
   -7.1135   -2.9713   29.0714 C   0  0  0  0  0  0  0  0  0  0  0  0
   -6.5766   -4.0030   28.1692 C   0  0  0  0  0  0  0  0  0  0  0  0
   -6.2901   -3.5769   26.9168 C   0  0  0  0  0  0  0  0  0  0  0  0
   -6.3840   -2.2240   26.5693 C   0  0  0  0  0  0  0  0  0  0  0  0
   -6.3837   -5.4096   28.5852 C   0  0  0  0  0  0  0  0  0  0  0  0
   -5.4331   -5.6845   29.1132 O   0  0  0  0  0  0  0  0  0  0  0  0
   -7.4287   -6.1278   28.2783 O   0  0  0  0  0  0  0  0  0  0  0  0
  -10.4442    1.2430   25.9824 C   0  0  0  0  0  0  0  0  0  0  0  0
  -11.6690    1.6072   25.8295 C   0  0  0  0  0  0  0  0  0  0  0  0
  -12.6733    0.6444   25.4912 C   0  0  0  0  0  0  0  0  0  0  0  0
  -12.2396   -0.6506   25.3359 C   0  0  0  0  0  0  0  0  0  0  0  0
  -10.8946   -1.0443   25.5180 C   0  0  0  0  0  0  0  0  0  0  0  0
  -10.0511   -0.0841   25.9328 C   0  0  0  0  0  0  0  0  0  0  0  0
  2  3  1  0
  5  8  1  0
  8  9  2  0
  8 10  1  0
  3 11  1  0
  3 12  1  0
  3 13  1  0
 10 14  1  0
 17 20  1  0
 20 21  2  0
 20 22  1  0
  6 23  1  0
 14 15  2  0
 15 16  1  0
 16 17  2  0
 17 18  1  0
 18 19  2  0
 19 14  1  0
 23 24  2  0
 24 25  1  0
 25 26  2  0
 26 27  1  0
 27 28  2  0
 28 23  1  0
  1  2  2  0
  2  7  1  0
  7  6  2  0
  6  5  1  0
  5  4  2  0
  4  1  1  0
M  END
$$$$
