No_29-complexes_sdf/6BKW-FPZ/2024-09-17-14-21-01/
     RDKit          3D

 25 27  0  0  0  0  0  0  0  0999 V2000
   -7.7129    4.2099   27.0854 C   0  0  0  0  0  0  0  0  0  0  0  0
   -7.7814    5.1722   27.8972 C   0  0  0  0  0  0  0  0  0  0  0  0
   -8.7889    3.2468   27.2220 C   0  0  0  0  0  0  0  0  0  0  0  0
   -8.5940    1.9755   26.6525 C   0  0  0  0  0  0  0  0  0  0  0  0
   -9.4990    1.3567   25.9026 C   0  0  0  0  0  0  0  0  0  0  0  0
   -9.0214    5.8041   28.2929 C   0  0  0  0  0  0  0  0  0  0  0  0
   -9.8944    3.6512   27.9113 C   0  0  0  0  0  0  0  0  0  0  0  0
  -10.0302    4.8964   28.4608 C   0  0  0  0  0  0  0  0  0  0  0  0
   -9.2307    0.1444   25.2955 C   0  0  0  0  0  0  0  0  0  0  0  0
   -7.9858   -0.4240   25.4273 C   0  0  0  0  0  0  0  0  0  0  0  0
   -7.0309    0.1094   26.2658 C   0  0  0  0  0  0  0  0  0  0  0  0
   -7.2674    1.3501   26.8939 C   0  0  0  0  0  0  0  0  0  0  0  0
  -11.2362    2.5330   28.0202 Cl  0  0  0  0  0  0  0  0  0  0  0  0
  -10.2286   -0.4073   24.3580 C   0  0  0  0  0  0  0  0  0  0  0  0
  -10.6548    0.1226   23.4380 C   0  0  0  0  0  0  0  0  0  0  0  0
  -10.3132    1.5480   23.1844 C   0  0  0  0  0  0  0  0  0  0  0  0
   -9.8633    1.9964   22.1358 C   0  0  0  0  0  0  0  0  0  0  0  0
   -9.7255    3.4615   21.8701 C   0  0  0  0  0  0  0  0  0  0  0  0
  -10.2281    4.3512   22.8525 C   0  0  0  0  0  0  0  0  0  0  0  0
  -10.7266    3.8063   24.0824 C   0  0  0  0  0  0  0  0  0  0  0  0
  -10.8263    2.4568   24.2181 C   0  0  0  0  0  0  0  0  0  0  0  0
  -11.7418   -0.2894   22.6867 C   0  0  0  0  0  0  0  0  0  0  0  0
  -12.3970   -1.0972   22.6921 C   0  0  0  0  0  0  0  0  0  0  0  0
  -13.1312   -1.8294   22.6107 C   0  0  0  0  0  0  0  0  0  0  0  0
  -11.5480    0.4047   21.2678 C   0  0  0  0  0  0  0  0  0  0  0  0
  3  4  1  0
  7 13  1  0
  9 14  1  0
 14 15  2  3
 15 16  1  0
 15 22  1  0
 22 23  2  3
 23 24  1  0
 22 25  1  0
  4  5  2  0
  5  9  1  0
  9 10  2  0
 10 11  1  0
 11 12  2  0
 12  4  1  0
  1  2  2  0
  2  6  1  0
  6  8  2  0
  8  7  1  0
  7  3  2  0
  3  1  1  0
 16 17  2  0
 17 18  1  0
 18 19  2  0
 19 20  1  0
 20 21  2  0
 21 16  1  0
M  END
$$$$
