No_27-complexes_sdf/6BKW-FPZ/2024-09-17-14-21-01/
     RDKit          3D

 23 25  0  0  0  0  0  0  0  0999 V2000
   -7.9040    3.9820   27.1177 C   0  0  0  0  0  0  0  0  0  0  0  0
   -9.0711    4.3164   27.0630 C   0  0  0  0  0  0  0  0  0  0  0  0
   -9.5294    5.4517   27.7215 C   0  0  0  0  0  0  0  0  0  0  0  0
   -6.9328    4.7309   27.8881 C   0  0  0  0  0  0  0  0  0  0  0  0
   -7.3377    5.8421   28.5537 C   0  0  0  0  0  0  0  0  0  0  0  0
   -8.6411    6.2609   28.3972 C   0  0  0  0  0  0  0  0  0  0  0  0
  -10.0467    3.4917   26.2630 C   0  0  0  0  0  0  0  0  0  0  0  0
   -9.5472    2.5898   25.4413 C   0  0  0  0  0  0  0  0  0  0  0  0
  -10.4174    1.8980   24.6013 C   0  0  0  0  0  0  0  0  0  0  0  0
  -11.7396    2.2647   24.5006 C   0  0  0  0  0  0  0  0  0  0  0  0
  -11.3141    3.7917   25.8916 C   0  0  0  0  0  0  0  0  0  0  0  0
  -12.1712    3.2781   25.1744 C   0  0  0  0  0  0  0  0  0  0  0  0
  -10.0747    0.6744   23.7988 C   0  0  0  0  0  0  0  0  0  0  0  0
   -9.0917   -0.1638   24.1184 C   0  0  0  0  0  0  0  0  0  0  0  0
   -8.7073   -1.2136   23.2417 C   0  0  0  0  0  0  0  0  0  0  0  0
   -9.3390   -1.3323   21.9753 C   0  0  0  0  0  0  0  0  0  0  0  0
  -10.5163    0.5480   22.4415 C   0  0  0  0  0  0  0  0  0  0  0  0
  -10.1613   -0.3955   21.5935 C   0  0  0  0  0  0  0  0  0  0  0  0
  -10.6750   -0.5094   20.3616 F   0  0  0  0  0  0  0  0  0  0  0  0
   -5.6817    4.2131   28.0454 O   0  0  0  0  0  0  0  0  0  0  0  0
  -13.5886    3.7452   25.0633 C   0  0  0  0  0  0  0  0  0  0  0  0
  -14.0949    4.1632   23.9856 C   0  0  0  0  0  0  0  0  0  0  0  0
  -15.4460    4.6635   23.8793 C   0  0  0  0  0  0  0  0  0  0  0  0
  2  7  1  0
  9 13  1  0
 18 19  1  0
  4 20  1  0
 12 21  1  0
 21 22  2  3
 22 23  1  0
  7  8  2  0
  8  9  1  0
  9 10  2  0
 10 12  1  0
 12 11  2  0
 11  7  1  0
  1  2  2  0
  2  3  1  0
  3  6  2  0
  6  5  1  0
  5  4  2  0
  4  1  1  0
 13 14  2  0
 14 15  1  0
 15 16  2  0
 16 18  1  0
 18 17  2  0
 17 13  1  0
M  END
$$$$
