No_222-complexes_sdf/6BKW-FPZ/2024-09-17-14-21-01/
     RDKit          3D

 40 46  0  0  0  0  0  0  0  0999 V2000
   -7.9040    3.9820   27.1177 C   0  0  0  0  0  0  0  0  0  0  0  0
   -8.2057    2.8231   26.8733 C   0  0  0  0  0  0  0  0  0  0  0  0
   -9.2962    2.4021   26.1155 C   0  0  0  0  0  0  0  0  0  0  0  0
   -8.7358    5.0662   26.5917 C   0  0  0  0  0  0  0  0  0  0  0  0
   -9.7618    4.7023   25.7546 C   0  0  0  0  0  0  0  0  0  0  0  0
  -10.0066    3.4105   25.4922 C   0  0  0  0  0  0  0  0  0  0  0  0
   -8.3936    6.4769   26.8843 C   0  0  0  0  0  0  0  0  0  0  0  0
   -8.6493    6.7879   28.0308 F   0  0  0  0  0  0  0  0  0  0  0  0
   -7.0512    6.6926   26.7340 F   0  0  0  0  0  0  0  0  0  0  0  0
   -8.9422    7.2996   25.9424 F   0  0  0  0  0  0  0  0  0  0  0  0
   -7.3540    1.6705   27.5041 C   0  0  0  0  0  0  0  0  0  0  0  0
   -7.7445    0.3339   27.3895 C   0  0  0  0  0  0  0  0  0  0  0  0
   -8.9615    0.0229   26.8382 C   0  0  0  0  0  0  0  0  0  0  0  0
   -9.6929    1.0492   26.0483 C   0  0  0  0  0  0  0  0  0  0  0  0
   -6.9760   -0.6609   28.0889 C   0  0  0  0  0  0  0  0  0  0  0  0
   -5.6417   -0.4259   28.4249 C   0  0  0  0  0  0  0  0  0  0  0  0
   -4.8665   -1.3839   29.1875 C   0  0  0  0  0  0  0  0  0  0  0  0
   -5.5070   -2.5345   29.5487 C   0  0  0  0  0  0  0  0  0  0  0  0
   -7.4653   -1.8713   28.5739 C   0  0  0  0  0  0  0  0  0  0  0  0
   -6.8105   -2.7481   29.3060 C   0  0  0  0  0  0  0  0  0  0  0  0
   -3.4480   -1.0391   29.4848 C   0  0  1  0  0  0  0  0  0  0  0  0
   -3.2972   -0.4563   30.7186 C   0  0  0  0  0  0  0  0  0  0  0  0
   -2.5526   -2.2173   29.2864 C   0  0  0  0  0  0  0  0  0  0  0  0
   -3.0082    0.1176   28.4649 C   0  0  0  0  0  0  0  0  0  0  0  0
   -2.6848   -1.1475   31.8458 C   0  0  1  0  0  0  0  0  0  0  0  0
   -1.6936   -2.0542   31.5808 C   0  0  0  0  0  0  0  0  0  0  0  0
   -1.7612   -2.7213   30.3590 C   0  0  0  0  0  0  0  0  0  0  0  0
   -3.7568    0.8037   27.6694 C   0  0  0  0  0  0  0  0  0  0  0  0
   -5.0154    0.6257   27.6605 C   0  0  0  0  0  0  0  0  0  0  0  0
   -2.4877   -2.8682   28.0373 C   0  0  0  0  0  0  0  0  0  0  0  0
   -1.8334   -2.3827   27.0135 C   0  0  0  0  0  0  0  0  0  0  0  0
   -3.2427   -4.0551   27.8405 C   0  0  0  0  0  0  0  0  0  0  0  0
   -3.3178   -4.6917   26.6425 C   0  0  0  0  0  0  0  0  0  0  0  0
   -1.8242   -2.9911   25.7158 C   0  0  0  0  0  0  0  0  0  0  0  0
   -2.5592   -4.1450   25.5600 C   0  0  0  0  0  0  0  0  0  0  0  0
   -6.0665    1.7911   27.3562 C   0  0  0  0  0  0  0  0  0  0  0  0
   -2.6509   -0.4156   33.2018 C   0  0  0  0  0  0  0  0  0  0  0  0
   -1.6990   -0.2072   33.8436 O   0  0  0  0  0  0  0  0  0  0  0  0
   -3.9173   -0.2556   33.6441 O   0  0  0  0  0  0  0  0  0  0  0  0
  -10.8279    0.5998   25.2571 C   0  0  0  0  0  0  0  0  0  0  0  0
  4  7  1  0
  7  8  1  0
  7  9  1  0
  7 10  1  0
 17 21  1  0
 21 22  1  1
 21 23  1  0
 21 24  1  0
 22 25  1  0
 26 27  1  0
 28 29  1  0
 23 30  1  0
 25 37  1  1
 37 38  2  0
 37 39  1  0
 14 40  1  0
 28 24  1  0
 25 26  1  0
 27 23  1  0
  1  2  2  0
  3  6  2  0
  6  5  1  0
  5  4  2  0
  4  1  1  0
 12 15  2  0
 16 29  2  0
 29 36  1  0
 36 11  2  0
 30 31  2  0
 31 34  1  0
 34 35  2  0
 35 33  1  0
 33 32  2  0
 32 30  1  0
 15 16  1  0
 16 17  1  0
 17 18  2  0
 18 20  1  0
 20 19  2  0
 19 15  1  0
  2  3  1  0
  3 14  1  0
 14 13  2  0
 13 12  1  0
 12 11  1  0
 11  2  1  0
M  END
$$$$
