No_2981-complexes_sdf/6BKW-FPZ/2024-09-17-14-21-01/
     RDKit          3D

 23 25  0  0  0  0  0  0  0  0999 V2000
   -7.7129    4.2099   27.0854 C   0  0  0  0  0  0  0  0  0  0  0  0
   -8.2112    3.0637   26.9225 C   0  0  0  0  0  0  0  0  0  0  0  0
   -9.4446    2.8304   26.1868 C   0  0  0  0  0  0  0  0  0  0  0  0
   -8.4697    5.3956   26.7238 C   0  0  0  0  0  0  0  0  0  0  0  0
   -9.6172    5.2111   25.9513 C   0  0  0  0  0  0  0  0  0  0  0  0
  -10.0424    3.9782   25.6873 C   0  0  0  0  0  0  0  0  0  0  0  0
   -7.9392    6.6271   26.9728 N   0  0  0  0  0  0  0  0  0  0  0  0
   -8.6824    7.6917   27.2433 C   0  0  0  0  0  0  0  0  0  0  0  0
   -7.4907    1.8049   27.3859 C   0  0  0  0  0  0  0  0  0  0  0  0
   -8.0588    0.6062   27.3026 N   0  0  0  0  0  0  0  0  0  0  0  0
   -6.3079    1.8622   27.9762 N   0  0  0  0  0  0  0  0  0  0  0  0
   -7.0654   -0.1933   27.8113 C   0  0  0  0  0  0  0  0  0  0  0  0
   -5.9552    0.5790   28.1565 C   0  0  0  0  0  0  0  0  0  0  0  0
   -4.6424    0.1662   28.7084 C   0  0  0  0  0  0  0  0  0  0  0  0
   -3.5428    0.7651   28.4055 C   0  0  0  0  0  0  0  0  0  0  0  0
   -4.7200   -0.9007   29.6899 C   0  0  0  0  0  0  0  0  0  0  0  0
   -3.5420   -1.2200   30.3430 C   0  0  0  0  0  0  0  0  0  0  0  0
   -2.3457    0.3047   28.9509 N   0  0  0  0  0  0  0  0  0  0  0  0
   -2.3281   -0.6131   29.8770 C   0  0  0  0  0  0  0  0  0  0  0  0
   -7.2030   -1.6456   27.9326 C   0  0  0  0  0  0  0  0  0  0  0  0
   -7.8417   -2.0432   28.6427 F   0  0  0  0  0  0  0  0  0  0  0  0
   -7.4595   -2.0879   26.6001 F   0  0  0  0  0  0  0  0  0  0  0  0
   -5.9609   -2.2633   28.1300 F   0  0  0  0  0  0  0  0  0  0  0  0
  4  7  1  0
  7  8  1  0
  2  9  1  0
  9 10  2  0
  9 11  1  0
 10 12  1  0
 11 13  1  0
 12 13  2  0
 13 14  1  0
 12 20  1  0
 20 21  1  0
 20 22  1  0
 20 23  1  0
 14 15  2  0
 15 18  1  0
 18 19  2  0
 19 17  1  0
 17 16  2  0
 16 14  1  0
  1  2  2  0
  2  3  1  0
  3  6  2  0
  6  5  1  0
  5  4  2  0
  4  1  1  0
M  END
$$$$
