No_2551-complexes_sdf/6BKW-FPZ/2024-09-17-14-21-01/
     RDKit          3D

 11 11  0  0  0  0  0  0  0  0999 V2000
   -7.7129    4.2099   27.0854 C   0  0  0  0  0  0  0  0  0  0  0  0
   -7.7814    5.1722   27.8972 C   0  0  0  0  0  0  0  0  0  0  0  0
   -8.8998    3.8713   26.3707 C   0  0  0  0  0  0  0  0  0  0  0  0
   -8.9563    2.6796   25.5490 C   0  0  0  0  0  0  0  0  0  0  0  0
   -8.8131    6.0996   27.7331 C   0  0  0  0  0  0  0  0  0  0  0  0
   -9.8942    4.7752   26.3268 C   0  0  0  0  0  0  0  0  0  0  0  0
   -9.8180    5.9214   27.0054 C   0  0  0  0  0  0  0  0  0  0  0  0
   -9.7163    1.8635   25.8853 N   0  0  0  0  0  0  0  0  0  0  0  0
   -9.7659    0.6230   25.2132 C   0  0  0  0  0  0  0  0  0  0  0  0
  -10.6197   -0.3365   25.6525 C   0  0  0  0  0  0  0  0  0  0  0  0
  -11.2619    0.2250   26.8477 C   0  0  0  0  0  0  0  0  0  0  0  0
  3  4  1  0
  4  8  2  3
  8  9  1  0
  9 10  2  3
 10 11  1  0
  1  2  2  0
  2  5  1  0
  5  7  2  0
  7  6  1  0
  6  3  2  0
  3  1  1  0
M  END
$$$$
