No_2947-complexes_sdf/6BKW-FPZ/2024-09-17-14-21-01/
     RDKit          3D

 29 33  0  0  0  0  0  0  0  0999 V2000
   -7.9040    3.9820   27.1177 C   0  0  0  0  0  0  0  0  0  0  0  0
   -7.8663    4.8694   27.9238 C   0  0  0  0  0  0  0  0  0  0  0  0
   -7.4698    2.6989   27.4277 C   0  0  0  0  0  0  0  0  0  0  0  0
   -6.1691    2.6024   27.7920 C   0  0  0  0  0  0  0  0  0  0  0  0
   -8.5263    6.1540   27.6333 C   0  0  0  0  0  0  0  0  0  0  0  0
   -5.5598    1.3280   28.1204 C   0  0  0  0  0  0  0  0  0  0  0  0
   -4.2499    1.1988   28.6099 C   0  0  0  0  0  0  0  0  0  0  0  0
   -8.9422    4.1802   26.1266 C   0  0  0  0  0  0  0  0  0  0  0  0
   -9.5397    5.3705   25.7687 C   0  0  0  0  0  0  0  0  0  0  0  0
   -9.2855    6.4290   26.6238 C   0  0  0  0  0  0  0  0  0  0  0  0
   -6.3010    0.1637   27.7951 C   0  0  0  0  0  0  0  0  0  0  0  0
   -5.7707   -1.1083   28.0649 C   0  0  0  0  0  0  0  0  0  0  0  0
   -3.7109   -0.0415   28.9774 C   0  0  0  0  0  0  0  0  0  0  0  0
   -4.4823   -1.1803   28.7040 C   0  0  0  0  0  0  0  0  0  0  0  0
   -8.2739    1.5469   27.1605 C   0  0  0  0  0  0  0  0  0  0  0  0
   -7.6443    0.2495   27.3604 C   0  0  0  0  0  0  0  0  0  0  0  0
   -3.8918   -2.4909   29.0317 C   0  0  0  0  0  0  0  0  0  0  0  0
   -4.5235   -3.4909   28.9743 C   0  0  0  0  0  0  0  0  0  0  0  0
   -3.9999   -4.7956   29.2681 C   0  0  0  0  0  0  0  0  0  0  0  0
   -2.6703   -4.8462   29.6918 C   0  0  0  0  0  0  0  0  0  0  0  0
   -1.9060   -3.7159   29.7944 C   0  0  0  0  0  0  0  0  0  0  0  0
   -2.4672   -2.4476   29.4998 C   0  0  0  0  0  0  0  0  0  0  0  0
   -8.4752   -0.8803   27.1550 C   0  0  0  0  0  0  0  0  0  0  0  0
   -8.5117   -1.4586   25.9383 C   0  0  0  0  0  0  0  0  0  0  0  0
   -8.8131   -2.6595   25.7865 C   0  0  0  0  0  0  0  0  0  0  0  0
   -9.1239   -1.4534   28.2235 C   0  0  0  0  0  0  0  0  0  0  0  0
   -9.6874   -2.7072   28.1834 C   0  0  0  0  0  0  0  0  0  0  0  0
   -9.5848   -3.3310   26.8691 C   0  0  0  0  0  0  0  0  0  0  0  0
  -10.0430   -4.5597   26.6682 O   0  0  0  0  0  0  0  0  0  0  0  0
  1  3  1  0
 14 17  1  0
 16 23  1  0
 28 29  1  0
 23 24  2  0
 24 25  1  0
 25 28  2  0
 28 27  1  0
 27 26  2  0
 26 23  1  0
  3  4  2  0
  4  6  1  0
 11 16  1  0
 16 15  2  0
 15  3  1  0
  6  7  2  0
  7 13  1  0
 13 14  2  0
 14 12  1  0
 12 11  2  0
 11  6  1  0
 17 18  2  0
 18 19  1  0
 19 20  2  0
 20 21  1  0
 21 22  2  0
 22 17  1  0
  1  2  2  0
  2  5  1  0
  5 10  2  0
 10  9  1  0
  9  8  2  0
  8  1  1  0
M  END
$$$$
