No_2593-complexes_sdf/6BKW-FPZ/2024-09-17-14-21-01/
     RDKit          3D

 16 17  0  0  0  0  0  0  0  0999 V2000
   -7.7129    4.2099   27.0854 C   0  0  0  0  0  0  0  0  0  0  0  0
   -7.7814    5.1722   27.8972 C   0  0  0  0  0  0  0  0  0  0  0  0
   -8.8776    3.8408   26.3416 C   0  0  0  0  0  0  0  0  0  0  0  0
   -9.9844    4.6492   26.4743 C   0  0  0  0  0  0  0  0  0  0  0  0
   -8.8033    6.1375   27.8728 C   0  0  0  0  0  0  0  0  0  0  0  0
   -9.9554    5.8280   27.1737 C   0  0  0  0  0  0  0  0  0  0  0  0
   -8.8752    2.6155   25.5663 C   0  0  0  0  0  0  0  0  0  0  0  0
   -9.7674    2.4672   24.5176 C   0  0  0  0  0  0  0  0  0  0  0  0
  -10.7480    3.5074   24.3719 C   0  0  0  0  0  0  0  0  0  0  0  0
  -10.9548    4.4919   25.3697 C   0  0  0  0  0  0  0  0  0  0  0  0
  -11.7972    3.2721   23.3643 C   0  0  0  0  0  0  0  0  0  0  0  0
  -12.8266    2.7147   23.3710 N   0  0  0  0  0  0  0  0  0  0  0  0
  -13.2438    2.0310   24.3059 C   0  0  0  0  0  0  0  0  0  0  0  0
  -13.9711    1.8283   24.9698 C   0  0  0  0  0  0  0  0  0  0  0  0
  -14.1564    0.8316   26.0054 C   0  0  0  0  0  0  0  0  0  0  0  0
  -15.0823    0.7035   27.0138 C   0  0  0  0  0  0  0  0  0  0  0  0
  9 11  1  0
 11 12  1  0
 12 13  1  0
 13 14  2  3
 14 15  1  0
 15 16  2  0
  4 10  2  0
 10  9  1  0
  9  8  2  0
  8  7  1  0
  7  3  2  0
  1  2  2  0
  2  5  1  0
  5  6  2  0
  6  4  1  0
  4  3  1  0
  3  1  1  0
M  END
$$$$
