No_2326-complexes_sdf/6BKW-FPZ/2024-09-17-14-21-01/
     RDKit          3D

 17 18  0  0  0  0  0  0  0  0999 V2000
   -7.9040    3.9820   27.1177 C   0  0  0  0  0  0  0  0  0  0  0  0
   -8.2057    2.8231   26.8733 C   0  0  0  0  0  0  0  0  0  0  0  0
   -8.7695    5.0740   26.7916 C   0  0  0  0  0  0  0  0  0  0  0  0
   -9.9618    4.7598   26.1630 C   0  0  0  0  0  0  0  0  0  0  0  0
   -7.3763    1.7038   27.3414 C   0  0  0  0  0  0  0  0  0  0  0  0
   -9.4562    2.5223   26.2873 C   0  0  0  0  0  0  0  0  0  0  0  0
  -10.2710    3.4837   25.9308 C   0  0  0  0  0  0  0  0  0  0  0  0
   -6.1030    1.9545   27.8761 C   0  0  0  0  0  0  0  0  0  0  0  0
   -5.2381    0.8749   28.2525 C   0  0  0  0  0  0  0  0  0  0  0  0
   -5.6342   -0.3995   28.1364 C   0  0  0  0  0  0  0  0  0  0  0  0
   -7.6646    0.3382   27.2470 C   0  0  0  0  0  0  0  0  0  0  0  0
   -6.9070   -0.6443   27.6821 C   0  0  0  0  0  0  0  0  0  0  0  0
   -8.1991    6.4550   27.0901 C   0  0  2  0  0  0  0  0  0  0  0  0
   -7.0912    6.6297   27.5384 N   0  0  0  0  0  0  0  0  0  0  0  0
   -9.1396    7.5746   26.9613 C   0  0  0  0  0  0  0  0  0  0  0  0
   -3.6602    1.3370   28.8750 Cl  0  0  0  0  0  0  0  0  0  0  0  0
   -7.4629   -2.2510   27.6313 Cl  0  0  0  0  0  0  0  0  0  0  0  0
  2  5  1  0
  3 13  1  0
 13 14  1  0
 13 15  1  1
  9 16  1  0
 12 17  1  0
  1  2  2  0
  2  6  1  0
  6  7  2  0
  7  4  1  0
  4  3  2  0
  3  1  1  0
  5  8  2  0
  8  9  1  0
  9 10  2  0
 10 12  1  0
 12 11  2  0
 11  5  1  0
M  END
$$$$
