No_2854-complexes_sdf/6BKW-FPZ/2024-09-17-14-21-01/
     RDKit          3D

 33 34  0  0  0  0  0  0  0  0999 V2000
   -7.7129    4.2099   27.0854 C   0  0  0  0  0  0  0  0  0  0  0  0
   -8.2112    3.0637   26.9225 C   0  0  0  0  0  0  0  0  0  0  0  0
   -7.0021    4.5281   28.2396 C   0  0  0  0  0  0  0  0  0  0  0  0
   -7.5497    1.9016   27.4549 C   0  0  0  0  0  0  0  0  0  0  0  0
   -8.0831    0.6050   27.2852 C   0  0  0  0  0  0  0  0  0  0  0  0
   -9.3847    0.5379   26.8015 C   0  0  0  0  0  0  0  0  0  0  0  0
  -10.0898    1.6195   26.3689 C   0  0  0  0  0  0  0  0  0  0  0  0
   -9.4935    2.8855   26.3990 C   0  0  0  0  0  0  0  0  0  0  0  0
   -8.7291    5.3575   26.7943 C   0  0  1  0  0  0  0  0  0  0  0  0
   -8.2587    6.7567   27.0160 C   0  0  0  0  0  0  0  0  0  0  0  0
   -9.1707    7.7809   26.6585 C   0  0  0  0  0  0  0  0  0  0  0  0
  -10.1077    4.1035   26.2128 C   0  0  2  0  0  0  0  0  0  0  0  0
   -8.9869    6.1071   26.0989 F   0  0  0  0  0  0  0  0  0  0  0  0
  -10.5505    4.3604   24.8092 C   0  0  2  0  0  0  0  0  0  0  0  0
  -11.1931    4.4668   27.2115 C   0  0  2  0  0  0  0  0  0  0  0  0
  -11.1492    4.2967   25.7188 Cl  0  0  0  0  0  0  0  0  0  0  0  0
   -8.6284    8.7230   26.5174 O   0  0  0  0  0  0  0  0  0  0  0  0
  -10.2905    3.8557   23.6790 C   0  0  0  0  0  0  0  0  0  0  0  0
  -10.2934    5.7614   24.4258 O   0  0  0  0  0  0  0  0  0  0  0  0
  -12.2940    3.9395   27.8431 C   0  0  2  0  0  0  0  0  0  0  0  0
  -10.1258    7.8179   27.4620 F   0  0  0  0  0  0  0  0  0  0  0  0
  -11.6996    5.7774   27.8348 C   0  0  0  0  0  0  0  0  0  0  0  0
  -13.0865    5.7022   28.3932 C   0  0  0  0  0  0  0  0  0  0  0  0
  -13.3902    4.5069   28.3664 C   0  0  1  0  0  0  0  0  0  0  0  0
  -11.8913    2.9494   28.9778 C   0  0  0  0  0  0  0  0  0  0  0  0
  -14.6704    4.1769   27.6497 C   0  0  0  0  0  0  0  0  0  0  0  0
  -14.8568    3.7952   26.5152 C   0  0  0  0  0  0  0  0  0  0  0  0
  -15.5865    3.4669   25.8768 C   0  0  0  0  0  0  0  0  0  0  0  0
  -15.5018    2.9505   24.4119 C   0  0  0  0  0  0  0  0  0  0  0  0
  -14.2193    3.0047   23.9649 C   0  0  0  0  0  0  0  0  0  0  0  0
  -14.0261    2.5276   22.6430 C   0  0  0  0  0  0  0  0  0  0  0  0
  -14.9577    2.0452   22.0321 C   0  0  0  0  0  0  0  0  0  0  0  0
  -16.2752    1.9488   22.4030 C   0  0  0  0  0  0  0  0  0  0  0  0
  1  2  1  0
  1  3  2  0
  1  9  1  0
  9 10  1  0
 10 11  1  0
  8 12  1  0
  9 13  1  6
 12 14  1  0
 12 15  1  0
 12 16  1  1
 11 17  2  0
 14 18  1  6
 14 19  1  0
 15 20  1  0
 11 21  1  0
 15 22  1  6
 22 23  2  0
 20 24  1  0
 23 24  1  0
 20 25  1  1
 24 26  1  6
 26 27  2  3
 27 28  1  0
 28 29  2  3
 29 30  1  0
 30 31  2  3
 31 32  1  0
 32 33  2  0
  2  4  2  0
  4  5  1  0
  5  6  2  0
  6  7  1  0
  7  8  2  0
  8  2  1  0
M  END
$$$$
