No_2524-complexes_sdf/6BKW-FPZ/2024-09-17-14-21-01/
     RDKit          3D

 40 44  0  0  0  0  0  0  0  0999 V2000
   -7.9040    3.9820   27.1177 C   0  0  0  0  0  0  0  0  0  0  0  0
   -9.0711    4.3164   27.0630 C   0  0  0  0  0  0  0  0  0  0  0  0
   -9.8698    3.9665   25.9494 C   0  0  0  0  0  0  0  0  0  0  0  0
   -7.0332    4.5030   28.2025 C   0  0  0  0  0  0  0  0  0  0  0  0
   -9.4357    2.9501   25.1393 C   0  0  0  0  0  0  0  0  0  0  0  0
   -8.8270    2.1042   25.6837 C   0  0  0  0  0  0  0  0  0  0  0  0
   -7.7561    2.5427   26.6806 C   0  0  0  0  0  0  0  0  0  0  0  0
   -7.4971    5.5268   28.7645 F   0  0  0  0  0  0  0  0  0  0  0  0
  -10.3735    2.6129   24.0232 C   0  0  0  0  0  0  0  0  0  0  0  0
  -10.1878    1.5254   23.3170 C   0  0  0  0  0  0  0  0  0  0  0  0
  -11.1490    3.6712   23.4060 C   0  0  0  0  0  0  0  0  0  0  0  0
  -11.7839    3.5439   22.1836 C   0  0  0  0  0  0  0  0  0  0  0  0
  -10.8307    1.3233   22.0302 C   0  0  0  0  0  0  0  0  0  0  0  0
  -11.6241    2.3366   21.5104 C   0  0  0  0  0  0  0  0  0  0  0  0
   -5.8418    5.0082   27.5222 F   0  0  0  0  0  0  0  0  0  0  0  0
   -6.3866    3.4737   28.8303 O   0  0  0  0  0  0  0  0  0  0  0  0
   -5.3541    2.8409   28.1636 C   0  0  0  0  0  0  0  0  0  0  0  0
   -4.8697    1.4928   28.7660 C   0  0  0  0  0  0  0  0  0  0  0  0
   -3.9619    0.7238   28.0002 C   0  0  0  0  0  0  0  0  0  0  0  0
   -3.6238   -0.5069   28.5370 C   0  0  0  0  0  0  0  0  0  0  0  0
   -4.0427   -0.9167   29.7938 C   0  0  0  0  0  0  0  0  0  0  0  0
   -4.9148   -0.1329   30.5157 C   0  0  0  0  0  0  0  0  0  0  0  0
   -5.2682    1.1046   30.0324 C   0  0  0  0  0  0  0  0  0  0  0  0
   -5.3188   -0.5929   31.8569 C   0  0  0  0  0  0  0  0  0  0  0  0
   -4.5241   -0.2839   33.0026 C   0  0  0  0  0  0  0  0  0  0  0  0
   -6.3778   -1.5311   32.0157 C   0  0  0  0  0  0  0  0  0  0  0  0
   -4.7467   -0.8612   34.2258 C   0  0  0  0  0  0  0  0  0  0  0  0
   -6.6479   -2.0274   33.3429 C   0  0  0  0  0  0  0  0  0  0  0  0
   -5.8650   -1.6669   34.4190 C   0  0  0  0  0  0  0  0  0  0  0  0
   -6.2846   -2.2917   35.9548 Cl  0  0  0  0  0  0  0  0  0  0  0  0
   -2.5825   -1.2917   27.7825 C   0  0  0  0  0  0  0  0  0  0  0  0
   -2.5899   -1.2017   26.5547 N   0  0  0  0  0  0  0  0  0  0  0  0
   -3.1759   -0.5140   25.8399 C   0  0  0  0  0  0  0  0  0  0  0  0
   -4.0840    0.2174   26.2683 N   0  0  0  0  0  0  0  0  0  0  0  0
   -3.9304   -0.4838   35.4196 C   0  0  0  0  0  0  0  0  0  0  0  0
   -2.7834   -1.2737   35.6674 C   0  0  0  0  0  0  0  0  0  0  0  0
   -2.1544   -1.8161   34.7950 C   0  0  0  0  0  0  0  0  0  0  0  0
   -2.0914   -1.7898   33.6171 C   0  0  0  0  0  0  0  0  0  0  0  0
   -1.1693   -2.4673   32.7016 C   0  0  0  0  0  0  0  0  0  0  0  0
   -1.3149   -2.4436   31.3309 C   0  0  0  0  0  0  0  0  0  0  0  0
  1  4  1  0
  4  8  1  0
  5  9  1  0
  4 15  1  0
  4 16  1  0
 16 17  1  0
 17 18  1  0
 22 24  1  0
 29 30  1  0
 27 35  1  0
 35 36  1  0
 36 37  1  0
 37 38  2  3
 38 39  1  0
 39 40  1  0
 18 19  2  0
 20 21  2  0
 21 22  1  0
 22 23  2  0
 23 18  1  0
 24 25  2  0
 25 27  1  0
 27 29  2  0
 29 28  1  0
 28 26  2  0
 26 24  1  0
 19 20  1  0
 20 31  1  0
 31 32  2  0
 32 33  1  0
 33 34  2  0
 34 19  1  0
  1  2  2  0
  2  3  1  0
  3  5  2  0
  5  6  1  0
  6  7  2  0
  7  1  1  0
  9 10  2  0
 10 13  1  0
 13 14  2  0
 14 12  1  0
 12 11  2  0
 11  9  1  0
M  END
$$$$
