No_2631-complexes_sdf/6BKW-FPZ/2024-09-17-14-21-01/
     RDKit          3D

 16 17  0  0  0  0  0  0  0  0999 V2000
   -7.7129    4.2099   27.0854 C   0  0  0  0  0  0  0  0  0  0  0  0
   -7.7814    5.1722   27.8972 C   0  0  0  0  0  0  0  0  0  0  0  0
   -8.8255    3.2789   27.1191 C   0  0  0  0  0  0  0  0  0  0  0  0
   -9.9209    3.4734   27.9101 C   0  0  0  0  0  0  0  0  0  0  0  0
   -9.9736    4.7085   28.6831 C   0  0  0  0  0  0  0  0  0  0  0  0
   -8.8840    5.5441   28.6612 C   0  0  0  0  0  0  0  0  0  0  0  0
   -8.7102    2.0171   26.3293 C   0  0  0  0  0  0  0  0  0  0  0  0
   -7.7266    1.2544   26.3758 F   0  0  0  0  0  0  0  0  0  0  0  0
   -9.6307    1.7356   25.5326 F   0  0  0  0  0  0  0  0  0  0  0  0
  -10.9470    2.6685   27.9352 O   0  0  0  0  0  0  0  0  0  0  0  0
  -12.0868    2.8791   28.6633 C   0  0  0  0  0  0  0  0  0  0  0  0
  -12.7758    1.7325   29.0925 C   0  0  0  0  0  0  0  0  0  0  0  0
  -13.7185    1.8494   30.0558 C   0  0  0  0  0  0  0  0  0  0  0  0
  -14.1579    3.1554   30.4884 C   0  0  0  0  0  0  0  0  0  0  0  0
  -13.5359    4.2718   29.9604 C   0  0  0  0  0  0  0  0  0  0  0  0
  -12.4522    4.1081   29.1308 C   0  0  0  0  0  0  0  0  0  0  0  0
  3  7  1  0
  7  8  1  0
  7  9  1  0
  4 10  1  0
 10 11  1  0
 11 12  2  0
 12 13  1  0
 13 14  2  0
 14 15  1  0
 15 16  2  0
 16 11  1  0
  1  2  2  0
  2  6  1  0
  6  5  2  0
  5  4  1  0
  4  3  2  0
  3  1  1  0
M  END
$$$$
