No_202-complexes_sdf/6BKW-FPZ/2024-09-17-14-21-01/
     RDKit          3D

 20 21  0  0  0  0  0  0  0  0999 V2000
   -7.2496    3.8871   27.4508 C   0  0  0  0  0  0  0  0  0  0  0  0
   -7.6161    2.7143   27.1523 C   0  0  0  0  0  0  0  0  0  0  0  0
   -8.8302    2.4659   26.5056 C   0  0  0  0  0  0  0  0  0  0  0  0
   -8.1584    5.0090   27.3234 C   0  0  0  0  0  0  0  0  0  0  0  0
   -9.3788    4.7965   26.7695 C   0  0  0  0  0  0  0  0  0  0  0  0
   -9.7028    3.5649   26.3276 C   0  0  0  0  0  0  0  0  0  0  0  0
   -6.7803    1.6411   27.3559 N   0  0  0  0  0  0  0  0  0  0  0  0
   -7.0291    0.3561   27.0278 C   0  0  0  0  0  0  0  0  0  0  0  0
   -6.1246   -0.6083   27.4832 C   0  0  0  0  0  0  0  0  0  0  0  0
   -5.5459    1.8001   27.9962 C   0  0  0  0  0  0  0  0  0  0  0  0
   -4.8042    0.7256   28.2445 N   0  0  0  0  0  0  0  0  0  0  0  0
   -5.0258   -0.4561   28.0719 C   0  0  2  0  0  0  0  0  0  0  0  0
   -7.6320    6.5753   27.8898 Cl  0  0  0  0  0  0  0  0  0  0  0  0
   -4.1089   -1.3402   28.4157 N   0  0  0  0  0  0  0  0  0  0  0  0
   -3.9585   -2.1230   29.1848 C   0  0  0  0  0  0  0  0  0  0  0  0
   -4.8869   -2.2142   30.2224 C   0  0  0  0  0  0  0  0  0  0  0  0
   -5.8145   -1.3339   30.4257 C   0  0  0  0  0  0  0  0  0  0  0  0
   -6.6584   -1.4094   31.6745 C   0  0  0  0  0  0  0  0  0  0  0  0
   -6.3685   -2.5281   32.5381 C   0  0  0  0  0  0  0  0  0  0  0  0
   -5.4034   -3.4049   32.3389 C   0  0  0  0  0  0  0  0  0  0  0  0
  2  7  1  0
  7  8  1  0
  7 10  1  0
 10 11  1  0
  9 12  1  0
 11 12  1  0
  4 13  1  0
 12 14  1  6
 14 15  1  0
 15 16  2  3
 16 17  1  0
 17 18  2  3
 18 19  1  0
 19 20  2  0
  8  9  1  0
  1  2  2  0
  2  3  1  0
  3  6  2  0
  6  5  1  0
  5  4  2  0
  4  1  1  0
M  END
$$$$
