No_2614-complexes_sdf/6BKW-FPZ/2024-09-17-14-21-01/
     RDKit          3D

 19 21  0  0  0  0  0  0  0  0999 V2000
   -7.9040    3.9820   27.1177 C   0  0  0  0  0  0  0  0  0  0  0  0
   -8.2057    2.8231   26.8733 C   0  0  0  0  0  0  0  0  0  0  0  0
   -9.2962    2.4021   26.1155 C   0  0  0  0  0  0  0  0  0  0  0  0
   -8.7358    5.0662   26.5917 C   0  0  0  0  0  0  0  0  0  0  0  0
   -9.7618    4.7023   25.7546 C   0  0  0  0  0  0  0  0  0  0  0  0
  -10.0066    3.4105   25.4922 C   0  0  0  0  0  0  0  0  0  0  0  0
   -8.3943    6.4760   26.8801 C   0  0  0  0  0  0  0  0  0  0  0  0
   -8.5947    7.4080   26.1130 N   0  0  0  0  0  0  0  0  0  0  0  0
   -7.3257    6.5890   27.7947 N   0  0  0  0  0  0  0  0  0  0  0  0
   -7.3680    1.6499   27.4724 C   0  0  0  0  0  0  0  0  0  0  0  0
   -6.0114    1.9095   27.7932 C   0  0  0  0  0  0  0  0  0  0  0  0
   -5.2127    0.8438   28.2965 C   0  0  0  0  0  0  0  0  0  0  0  0
   -5.7107   -0.4212   28.3621 C   0  0  0  0  0  0  0  0  0  0  0  0
   -7.7618    0.3248   27.4841 C   0  0  0  0  0  0  0  0  0  0  0  0
   -7.0218   -0.6486   27.9782 C   0  0  0  0  0  0  0  0  0  0  0  0
   -4.8591   -1.4821   28.9238 C   0  0  0  0  0  0  0  0  0  0  0  0
   -3.7730   -1.2228   29.5965 C   0  0  0  0  0  0  0  0  0  0  0  0
   -3.2648    0.1763   29.4499 C   0  0  0  0  0  0  0  0  0  0  0  0
   -3.9211    1.1515   28.8782 C   0  0  0  0  0  0  0  0  0  0  0  0
  4  7  1  0
  7  8  2  0
  7  9  1  0
  2 10  1  0
  1  2  2  0
  2  3  1  0
  3  6  2  0
  6  5  1  0
  5  4  2  0
  4  1  1  0
 10 11  2  0
 11 12  1  0
 13 15  1  0
 15 14  2  0
 14 10  1  0
 12 13  2  0
 13 16  1  0
 16 17  2  0
 17 18  1  0
 18 19  2  0
 19 12  1  0
M  END
$$$$
