No_2628-complexes_sdf/6BKW-FPZ/2024-09-17-14-21-01/
     RDKit          3D

 20 21  0  0  0  0  0  0  0  0999 V2000
   -7.7129    4.2099   27.0854 C   0  0  0  0  0  0  0  0  0  0  0  0
   -8.9133    4.4736   27.0998 C   0  0  0  0  0  0  0  0  0  0  0  0
   -9.7937    3.7367   26.2091 C   0  0  0  0  0  0  0  0  0  0  0  0
   -6.8266    5.0441   28.0594 C   0  0  0  0  0  0  0  0  0  0  0  0
   -9.2322    2.6276   25.6126 C   0  0  0  0  0  0  0  0  0  0  0  0
  -10.0960    1.8717   24.7510 C   0  0  0  0  0  0  0  0  0  0  0  0
  -11.2836    2.4368   24.3506 C   0  0  0  0  0  0  0  0  0  0  0  0
  -11.7701    3.6086   24.8723 C   0  0  0  0  0  0  0  0  0  0  0  0
  -11.0280    4.3106   25.7851 C   0  0  0  0  0  0  0  0  0  0  0  0
   -9.4108    5.5839   27.8519 C   0  0  0  0  0  0  0  0  0  0  0  0
   -8.6597    6.4887   28.5595 C   0  0  0  0  0  0  0  0  0  0  0  0
   -7.3029    6.0555   28.6311 C   0  0  0  0  0  0  0  0  0  0  0  0
   -9.5847    0.6205   24.1539 C   0  0  0  0  0  0  0  0  0  0  0  0
   -9.2175   -0.3715   24.6458 F   0  0  0  0  0  0  0  0  0  0  0  0
   -8.5029    1.0244   23.2569 F   0  0  0  0  0  0  0  0  0  0  0  0
  -10.4716    0.2345   23.0445 F   0  0  0  0  0  0  0  0  0  0  0  0
  -13.0596    4.1282   24.4651 C   0  0  0  0  0  0  0  0  0  0  0  0
  -13.9190    3.2793   24.2281 F   0  0  0  0  0  0  0  0  0  0  0  0
  -12.8674    4.9176   23.3675 F   0  0  0  0  0  0  0  0  0  0  0  0
  -13.5389    4.9826   25.3909 F   0  0  0  0  0  0  0  0  0  0  0  0
  2  3  1  0
  6 13  1  0
 13 14  1  0
 13 15  1  0
 13 16  1  0
  8 17  1  0
 17 18  1  0
 17 19  1  0
 17 20  1  0
  3  5  2  0
  5  6  1  0
  6  7  2  0
  7  8  1  0
  8  9  2  0
  9  3  1  0
  1  2  2  0
  2 10  1  0
 10 11  2  0
 11 12  1  0
 12  4  2  0
  4  1  1  0
M  END
$$$$
