No_2913-complexes_sdf/6BKW-FPZ/2024-09-17-14-21-01/
     RDKit          3D

 18 19  0  0  0  0  0  0  0  0999 V2000
   -7.7129    4.2099   27.0854 C   0  0  0  0  0  0  0  0  0  0  0  0
   -7.7814    5.1722   27.8972 C   0  0  0  0  0  0  0  0  0  0  0  0
   -8.8255    3.2789   27.1191 C   0  0  0  0  0  0  0  0  0  0  0  0
   -8.7530    2.0643   26.3119 C   0  0  0  0  0  0  0  0  0  0  0  0
   -9.8958    1.4957   25.8527 C   0  0  0  0  0  0  0  0  0  0  0  0
  -11.1040    1.9266   26.2563 C   0  0  0  0  0  0  0  0  0  0  0  0
  -10.1519    3.6814   27.3365 C   0  0  0  0  0  0  0  0  0  0  0  0
  -11.2495    3.0371   27.1007 C   0  0  0  0  0  0  0  0  0  0  0  0
   -6.6641    6.1001   27.9768 C   0  0  0  0  0  0  0  0  0  0  0  0
   -9.7134    0.2547   25.0222 C   0  0  0  0  0  0  0  0  0  0  0  0
   -9.2575   -0.9053   25.5484 C   0  0  0  0  0  0  0  0  0  0  0  0
   -9.9529    0.3737   23.6352 C   0  0  0  0  0  0  0  0  0  0  0  0
   -9.0382   -1.0889   26.7801 C   0  0  0  0  0  0  0  0  0  0  0  0
   -9.0655   -0.5654   27.7311 C   0  0  0  0  0  0  0  0  0  0  0  0
   -9.5307   -0.3463   22.7313 C   0  0  0  0  0  0  0  0  0  0  0  0
   -8.9214   -1.6327   23.1716 C   0  0  0  0  0  0  0  0  0  0  0  0
   -8.8229   -1.8696   24.4398 C   0  0  0  0  0  0  0  0  0  0  0  0
   -8.8948   -1.1510   29.1459 C   0  0  0  0  0  0  0  0  0  0  0  0
  1  2  2  3
  1  3  1  0
  2  9  1  0
  5 10  1  0
 11 13  1  0
 13 14  2  3
 14 18  1  0
  3  4  2  0
  4  5  1  0
  5  6  2  0
  6  8  1  0
  8  7  2  0
  7  3  1  0
 10 11  2  0
 11 17  1  0
 17 16  2  0
 16 15  1  0
 15 12  2  0
 12 10  1  0
M  END
$$$$
