No_2920-complexes_sdf/6BKW-FPZ/2024-09-17-14-21-01/
     RDKit          3D

 28 30  0  0  0  0  0  0  0  0999 V2000
   -7.7129    4.2099   27.0854 C   0  0  0  0  0  0  0  0  0  0  0  0
   -8.2112    3.0637   26.9225 C   0  0  0  0  0  0  0  0  0  0  0  0
   -7.5138    1.9223   27.4249 C   0  0  0  0  0  0  0  0  0  0  0  0
   -8.5309    5.4147   26.8151 C   0  0  0  0  0  0  0  0  0  0  0  0
   -9.6817    5.2393   26.1100 C   0  0  0  0  0  0  0  0  0  0  0  0
  -10.1032    3.9957   25.8534 C   0  0  0  0  0  0  0  0  0  0  0  0
   -9.4035    2.8430   26.2573 C   0  0  0  0  0  0  0  0  0  0  0  0
   -6.1481    1.9922   27.8210 C   0  0  0  0  0  0  0  0  0  0  0  0
   -5.4163    0.8353   28.2312 C   0  0  0  0  0  0  0  0  0  0  0  0
   -6.0408   -0.3767   28.1455 C   0  0  0  0  0  0  0  0  0  0  0  0
   -7.9843    0.5770   27.3398 C   0  0  0  0  0  0  0  0  0  0  0  0
   -7.3370   -0.4771   27.7605 C   0  0  0  0  0  0  0  0  0  0  0  0
   -7.9803    6.7630   27.0962 C   0  0  0  0  0  0  0  0  0  0  0  0
   -8.6562    7.8572   26.7359 N   0  0  0  0  0  0  0  0  0  0  0  0
   -6.9061    6.8422   27.7833 O   0  0  0  0  0  0  0  0  0  0  0  0
   -3.7791    1.0802   28.7546 Cl  0  0  0  0  0  0  0  0  0  0  0  0
  -11.6989    3.7931   24.8692 Br  0  0  0  0  0  0  0  0  0  0  0  0
   -7.9696   -1.7867   27.7534 C   0  0  0  0  0  0  0  0  0  0  0  0
   -7.9321   -2.6910   27.2411 F   0  0  0  0  0  0  0  0  0  0  0  0
   -9.4401   -1.3831   27.8624 F   0  0  0  0  0  0  0  0  0  0  0  0
   -7.9360   -2.1892   29.1716 F   0  0  0  0  0  0  0  0  0  0  0  0
   -5.3618   -1.4225   28.6564 O   0  0  0  0  0  0  0  0  0  0  0  0
   -4.9028   -1.5360   29.7716 C   0  0  0  0  0  0  0  0  0  0  0  0
   -4.9432   -2.8162   30.3781 C   0  0  0  0  0  0  0  0  0  0  0  0
   -5.1542   -2.8147   31.6537 C   0  0  0  0  0  0  0  0  0  0  0  0
   -4.7995   -1.7212   32.5701 C   0  0  0  0  0  0  0  0  0  0  0  0
   -4.6049   -0.4575   31.8642 C   0  0  0  0  0  0  0  0  0  0  0  0
   -4.7431   -0.4054   30.6334 C   0  0  0  0  0  0  0  0  0  0  0  0
  2  3  1  0
  4 13  1  0
 13 14  1  0
 13 15  2  0
  9 16  1  0
  6 17  1  0
 12 18  1  0
 18 19  1  0
 18 20  1  0
 18 21  1  0
 10 22  1  0
 22 23  1  0
 23 24  2  0
 24 25  1  0
 25 26  2  0
 26 27  1  0
 27 28  2  0
 28 23  1  0
  3  8  2  0
  8  9  1  0
  9 10  2  0
 10 12  1  0
 12 11  2  0
 11  3  1  0
  1  2  2  0
  2  7  1  0
  7  6  2  0
  6  5  1  0
  5  4  2  0
  4  1  1  0
M  END
$$$$
