No_2512-complexes_sdf/6BKW-FPZ/2024-09-17-14-21-01/
     RDKit          3D

 12 13  0  0  0  0  0  0  0  0999 V2000
   -7.9040    3.9820   27.1177 C   0  0  0  0  0  0  0  0  0  0  0  0
   -8.2057    2.8231   26.8733 C   0  0  0  0  0  0  0  0  0  0  0  0
   -8.7695    5.0740   26.7916 C   0  0  0  0  0  0  0  0  0  0  0  0
   -9.9618    4.7598   26.1630 C   0  0  0  0  0  0  0  0  0  0  0  0
   -7.3763    1.7038   27.3414 C   0  0  0  0  0  0  0  0  0  0  0  0
   -9.4562    2.5223   26.2873 C   0  0  0  0  0  0  0  0  0  0  0  0
  -10.2710    3.4837   25.9308 C   0  0  0  0  0  0  0  0  0  0  0  0
   -7.6881    0.3350   27.2140 C   0  0  0  0  0  0  0  0  0  0  0  0
   -6.7640   -0.6000   27.5358 C   0  0  0  0  0  0  0  0  0  0  0  0
   -5.4841   -0.2199   27.9957 C   0  0  0  0  0  0  0  0  0  0  0  0
   -5.1456    1.1331   28.1033 C   0  0  0  0  0  0  0  0  0  0  0  0
   -5.9865    2.0555   27.7503 C   0  0  0  0  0  0  0  0  0  0  0  0
  2  5  1  0
  5  8  2  0
  8  9  1  0
  9 10  2  0
 10 11  1  0
 11 12  2  0
 12  5  1  0
  1  2  2  0
  2  6  1  0
  6  7  2  0
  7  4  1  0
  4  3  2  0
  3  1  1  0
M  END
$$$$
