No_2400-complexes_sdf/6BKW-FPZ/2024-09-17-14-21-01/
     RDKit          3D

 23 25  0  0  0  0  0  0  0  0999 V2000
   -7.9040    3.9820   27.1177 C   0  0  0  0  0  0  0  0  0  0  0  0
   -8.2057    2.8231   26.8733 C   0  0  0  0  0  0  0  0  0  0  0  0
   -7.4766    1.7477   27.4593 C   0  0  0  0  0  0  0  0  0  0  0  0
   -8.7468    5.1251   26.6967 C   0  0  0  0  0  0  0  0  0  0  0  0
   -9.7234    4.8589   25.8202 C   0  0  0  0  0  0  0  0  0  0  0  0
   -9.9711    3.5858   25.4266 C   0  0  0  0  0  0  0  0  0  0  0  0
   -9.2266    2.4957   25.9600 C   0  0  0  0  0  0  0  0  0  0  0  0
   -6.6635    0.9000   26.7532 C   0  0  0  0  0  0  0  0  0  0  0  0
   -5.9212   -0.0752   27.4947 C   0  0  0  0  0  0  0  0  0  0  0  0
   -4.7271   -0.0456   27.4974 C   0  0  0  0  0  0  0  0  0  0  0  0
   -3.8439   -0.9288   28.2685 C   0  0  0  0  0  0  0  0  0  0  0  0
   -4.4560   -1.7913   29.1660 C   0  0  0  0  0  0  0  0  0  0  0  0
   -6.4952   -0.9549   28.4899 C   0  0  0  0  0  0  0  0  0  0  0  0
   -5.8286   -1.7718   29.2518 C   0  0  0  0  0  0  0  0  0  0  0  0
   -8.4362    6.5302   27.0737 C   0  0  0  0  0  0  0  0  0  0  0  0
   -7.8649    6.8636   28.1636 N   0  0  0  0  0  0  0  0  0  0  0  0
   -8.8844    7.4685   26.3295 O   0  0  0  0  0  0  0  0  0  0  0  0
  -11.0076    3.3269   24.4178 C   0  0  0  0  0  0  0  0  0  0  0  0
  -11.2641    3.9571   23.5531 C   0  0  0  0  0  0  0  0  0  0  0  0
  -12.2392    3.7890   22.4532 C   0  0  0  0  0  0  0  0  0  0  0  0
  -13.0262    2.7005   22.5990 C   0  0  0  0  0  0  0  0  0  0  0  0
  -11.8189    2.1175   24.5135 C   0  0  0  0  0  0  0  0  0  0  0  0
  -12.7688    1.8640   23.6326 C   0  0  0  0  0  0  0  0  0  0  0  0
  2  3  1  0
  3  8  2  3
  8  9  1  0
  4 15  1  0
 15 16  1  0
 15 17  2  0
  6 18  1  0
 18 19  2  0
 19 20  1  0
 20 21  2  0
 21 23  1  0
 23 22  2  0
 22 18  1  0
  1  2  2  0
  2  7  1  0
  7  6  2  0
  6  5  1  0
  5  4  2  0
  4  1  1  0
  9 10  2  0
 10 11  1  0
 11 12  2  0
 12 14  1  0
 14 13  2  0
 13  9  1  0
M  END
$$$$
