No_2418-complexes_sdf/6BKW-FPZ/2024-09-17-14-21-01/
     RDKit          3D

 13 14  0  0  0  0  0  0  0  0999 V2000
   -7.7129    4.2099   27.0854 C   0  0  0  0  0  0  0  0  0  0  0  0
   -8.2112    3.0637   26.9225 C   0  0  0  0  0  0  0  0  0  0  0  0
   -8.5108    5.3904   26.9436 C   0  0  0  0  0  0  0  0  0  0  0  0
   -9.7256    5.1955   26.3518 C   0  0  0  0  0  0  0  0  0  0  0  0
   -9.4995    2.8258   26.4878 C   0  0  0  0  0  0  0  0  0  0  0  0
  -10.4973    6.3474   26.1135 C   0  0  0  0  0  0  0  0  0  0  0  0
  -10.2838    3.9539   26.1781 C   0  0  0  0  0  0  0  0  0  0  0  0
   -7.3348    1.8314   27.2349 C   0  0  0  0  0  0  0  0  0  0  0  0
   -7.7835    0.5249   27.1589 C   0  0  0  0  0  0  0  0  0  0  0  0
   -6.9201   -0.4862   27.5342 C   0  0  0  0  0  0  0  0  0  0  0  0
   -5.5995   -0.1760   27.9214 C   0  0  0  0  0  0  0  0  0  0  0  0
   -5.1675    1.1424   27.9762 C   0  0  0  0  0  0  0  0  0  0  0  0
   -5.9724    2.1201   27.6683 C   0  0  0  0  0  0  0  0  0  0  0  0
  4  6  1  0
  2  8  1  0
  8  9  2  0
  9 10  1  0
 10 11  2  0
 11 12  1  0
 12 13  2  0
 13  8  1  0
  1  2  2  0
  2  5  1  0
  5  7  2  0
  7  4  1  0
  4  3  2  0
  3  1  1  0
M  END
$$$$
