No_2319-complexes_sdf/6BKW-FPZ/2024-09-17-14-21-01/
     RDKit          3D

 15 17  0  0  0  0  0  0  0  0999 V2000
   -7.2496    3.8871   27.4508 C   0  0  0  0  0  0  0  0  0  0  0  0
   -7.6161    2.7143   27.1523 C   0  0  0  0  0  0  0  0  0  0  0  0
   -8.8302    2.4659   26.5056 C   0  0  0  0  0  0  0  0  0  0  0  0
   -8.1584    5.0090   27.3234 C   0  0  0  0  0  0  0  0  0  0  0  0
   -9.3788    4.7965   26.7695 C   0  0  0  0  0  0  0  0  0  0  0  0
   -9.7028    3.5649   26.3276 C   0  0  0  0  0  0  0  0  0  0  0  0
   -6.9225    1.4464   27.3142 C   0  0  0  0  0  0  0  0  0  0  0  0
   -5.7220    1.5509   28.0129 N   0  0  0  0  0  0  0  0  0  0  0  0
   -7.2098    0.2166   26.8561 C   0  0  0  0  0  0  0  0  0  0  0  0
   -4.8966    0.4554   28.1893 C   0  0  0  0  0  0  0  0  0  0  0  0
   -8.4836    0.0604   26.1745 C   0  0  0  0  0  0  0  0  0  0  0  0
   -9.2752    1.2149   26.0184 C   0  0  0  0  0  0  0  0  0  0  0  0
   -3.6278    0.7332   28.8377 C   0  0  0  0  0  0  0  0  0  0  0  0
   -5.2703   -0.8374   27.9400 C   0  0  0  0  0  0  0  0  0  0  0  0
   -6.4898   -0.9709   27.2352 C   0  0  0  0  0  0  0  0  0  0  0  0
 10 13  1  0
  7  8  2  0
  8 10  1  0
 10 14  2  0
 14 15  1  0
 15  9  2  0
  3 12  1  0
 12 11  2  0
 11  9  1  0
  9  7  1  0
  7  2  1  0
  1  2  2  0
  2  3  1  0
  3  6  2  0
  6  5  1  0
  5  4  2  0
  4  1  1  0
M  END
$$$$
