No_267-complexes_sdf/6BKW-FPZ/2024-09-17-14-21-01/
     RDKit          3D

 18 19  0  0  0  0  0  0  0  0999 V2000
   -7.2496    3.8871   27.4508 C   0  0  0  0  0  0  0  0  0  0  0  0
   -8.5096    4.0291   27.2770 C   0  0  0  0  0  0  0  0  0  0  0  0
   -9.3502    2.8685   26.8763 C   0  0  0  0  0  0  0  0  0  0  0  0
   -6.6288    2.5513   27.4938 C   0  0  0  0  0  0  0  0  0  0  0  0
   -7.4365    1.4714   27.2032 C   0  0  0  0  0  0  0  0  0  0  0  0
   -8.7772    1.6579   26.9338 C   0  0  0  0  0  0  0  0  0  0  0  0
   -9.1078    5.3660   27.2249 C   0  0  0  0  0  0  0  0  0  0  0  0
  -10.3243    5.4180   27.6589 F   0  0  0  0  0  0  0  0  0  0  0  0
   -8.3971    6.2640   28.0444 F   0  0  0  0  0  0  0  0  0  0  0  0
   -9.0207    5.8742   25.9697 F   0  0  0  0  0  0  0  0  0  0  0  0
   -6.4216   -0.1565   27.1602 Br  0  0  0  0  0  0  0  0  0  0  0  0
   -9.5603    0.4620   26.5711 C   0  0  0  0  0  0  0  0  0  0  0  0
  -10.7734    0.4279   27.1886 C   0  0  0  0  0  0  0  0  0  0  0  0
  -11.6505   -0.7227   27.0211 C   0  0  0  0  0  0  0  0  0  0  0  0
  -12.8462   -0.7370   27.6672 C   0  0  0  0  0  0  0  0  0  0  0  0
  -13.2862    0.3770   28.4660 C   0  0  0  0  0  0  0  0  0  0  0  0
  -12.4728    1.4729   28.6443 C   0  0  0  0  0  0  0  0  0  0  0  0
  -11.2682    1.5169   28.0991 C   0  0  0  0  0  0  0  0  0  0  0  0
  2  7  1  0
  7  8  1  0
  7  9  1  0
  7 10  1  0
  5 11  1  0
  6 12  1  0
 12 13  1  0
 13 14  2  0
 14 15  1  0
 15 16  2  0
 16 17  1  0
 17 18  2  0
 18 13  1  0
  1  2  2  0
  2  3  1  0
  3  6  2  0
  6  5  1  0
  5  4  2  0
  4  1  1  0
M  END
$$$$
