No_2625-complexes_sdf/6BKW-FPZ/2024-09-17-14-21-01/
     RDKit          3D

 12 13  0  0  0  0  0  0  0  0999 V2000
   -7.7129    4.2099   27.0854 C   0  0  0  0  0  0  0  0  0  0  0  0
   -7.7814    5.1722   27.8972 C   0  0  0  0  0  0  0  0  0  0  0  0
   -7.3155    2.9699   27.6145 C   0  0  0  0  0  0  0  0  0  0  0  0
   -7.9010    1.7962   27.2023 C   0  0  0  0  0  0  0  0  0  0  0  0
   -7.4626    0.5915   27.6802 C   0  0  0  0  0  0  0  0  0  0  0  0
   -8.7099    6.3155   27.5283 C   0  0  0  0  0  0  0  0  0  0  0  0
   -6.1065    0.4678   28.0909 C   0  0  0  0  0  0  0  0  0  0  0  0
   -5.3269    1.6814   28.1620 C   0  0  0  0  0  0  0  0  0  0  0  0
   -5.8617    2.8727   27.7988 C   0  0  0  0  0  0  0  0  0  0  0  0
   -8.9545    4.2108   26.3045 C   0  0  0  0  0  0  0  0  0  0  0  0
   -9.7059    3.2398   25.7564 C   0  0  0  0  0  0  0  0  0  0  0  0
   -9.1575    1.8369   26.4227 C   0  0  0  0  0  0  0  0  0  0  0  0
  1  2  1  0
  2  6  1  0
  4  5  1  0
  5  7  2  0
  7  8  1  0
  8  9  2  0
  9  3  1  0
  1  3  2  0
  3  4  1  0
  4 12  2  0
 12 11  1  0
 11 10  2  0
 10  1  1  0
M  END
$$$$
