No_2485-complexes_sdf/6BKW-FPZ/2024-09-17-14-21-01/
     RDKit          3D

 23 26  0  0  0  0  0  0  0  0999 V2000
   -7.2496    3.8871   27.4508 C   0  0  0  0  0  0  0  0  0  0  0  0
   -7.9379    4.9063   27.8518 C   0  0  0  0  0  0  0  0  0  0  0  0
   -9.3376    4.8647   27.7795 C   0  0  0  0  0  0  0  0  0  0  0  0
   -7.8544    2.6294   27.0414 C   0  0  0  0  0  0  0  0  0  0  0  0
   -9.2665    2.6175   27.0340 C   0  0  0  0  0  0  0  0  0  0  0  0
   -9.9836    3.7042   27.4150 C   0  0  0  0  0  0  0  0  0  0  0  0
   -7.0765    1.4847   26.7707 C   0  0  0  0  0  0  0  0  0  0  0  0
   -7.6103    0.4216   26.0621 C   0  0  0  0  0  0  0  0  0  0  0  0
   -9.0555    0.5178   25.8561 C   0  0  0  0  0  0  0  0  0  0  0  0
   -9.8377    1.5328   26.3628 C   0  0  0  0  0  0  0  0  0  0  0  0
   -7.3483    6.0577   28.2356 O   0  0  0  0  0  0  0  0  0  0  0  0
  -11.4735    3.6641   27.4729 C   0  0  0  0  0  0  0  0  0  0  0  0
  -12.1023    3.9825   26.4137 C   0  0  0  0  0  0  0  0  0  0  0  0
  -11.6635    4.2944   25.2203 C   0  0  0  0  0  0  0  0  0  0  0  0
  -10.3024    4.4928   24.9216 C   0  0  0  0  0  0  0  0  0  0  0  0
   -9.9413    4.8722   23.5300 C   0  0  0  0  0  0  0  0  0  0  0  0
  -10.9815    4.9416   22.6003 C   0  0  0  0  0  0  0  0  0  0  0  0
  -12.4302    4.5224   24.0093 C   0  0  0  0  0  0  0  0  0  0  0  0
  -12.2018    4.8446   22.8507 C   0  0  0  0  0  0  0  0  0  0  0  0
  -13.6348    3.8973   26.5162 C   0  0  0  0  0  0  0  0  0  0  0  0
  -14.4672    3.7545   25.6879 C   0  0  0  0  0  0  0  0  0  0  0  0
  -13.9825    4.3066   24.3534 C   0  0  0  0  0  0  0  0  0  0  0  0
  -11.8286    2.8912   28.4573 O   0  0  0  0  0  0  0  0  0  0  0  0
  2 11  1  0
  6 12  1  0
 12 13  1  0
 12 23  2  0
  5 10  2  0
 10  9  1  0
  9  8  2  0
  8  7  1  0
  7  4  2  0
  1  2  2  0
  2  3  1  0
  3  6  2  0
  6  5  1  0
  5  4  1  0
  4  1  1  0
 13 14  1  0
 18 22  1  0
 22 21  2  0
 21 20  1  0
 20 13  2  0
 14 15  2  0
 15 16  1  0
 16 17  2  0
 17 19  1  0
 19 18  2  0
 18 14  1  0
M  END
$$$$
