No_2015-complexes_sdf/6BKW-FPZ/2024-09-17-14-21-01/
     RDKit          3D

 25 27  0  0  0  0  0  0  0  0999 V2000
   -7.2496    3.8871   27.4508 C   0  0  0  0  0  0  0  0  0  0  0  0
   -8.5096    4.0291   27.2770 C   0  0  0  0  0  0  0  0  0  0  0  0
   -9.3451    2.8786   26.9046 C   0  0  0  0  0  0  0  0  0  0  0  0
  -10.6709    3.0505   26.6789 C   0  0  0  0  0  0  0  0  0  0  0  0
   -6.7644    2.5802   27.4391 N   0  0  0  0  0  0  0  0  0  0  0  0
   -7.4578    1.5113   27.2244 C   0  0  0  0  0  0  0  0  0  0  0  0
   -8.7759    1.6690   26.9338 C   0  0  0  0  0  0  0  0  0  0  0  0
  -11.5673    2.6079   27.2921 C   0  0  0  0  0  0  0  0  0  0  0  0
  -13.0261    2.7709   27.2100 C   0  0  0  0  0  0  0  0  0  0  0  0
  -13.3669    3.6837   26.2461 C   0  0  0  0  0  0  0  0  0  0  0  0
  -12.4107    4.3652   25.5071 C   0  0  0  0  0  0  0  0  0  0  0  0
  -11.0664    4.1631   25.7410 C   0  0  0  0  0  0  0  0  0  0  0  0
   -6.7784    0.2285   27.1481 C   0  0  0  0  0  0  0  0  0  0  0  0
   -5.5390    0.0683   27.7413 C   0  0  0  0  0  0  0  0  0  0  0  0
   -4.8589   -1.1541   27.7301 C   0  0  0  0  0  0  0  0  0  0  0  0
   -5.4611   -2.1809   27.0441 C   0  0  0  0  0  0  0  0  0  0  0  0
   -7.0484   -0.9808   26.5230 C   0  0  0  0  0  0  0  0  0  0  0  0
   -6.5270   -2.1007   26.4406 C   0  0  0  0  0  0  0  0  0  0  0  0
   -6.4253    4.7835   27.8200 F   0  0  0  0  0  0  0  0  0  0  0  0
  -14.8198    4.0558   26.0121 C   0  0  0  0  0  0  0  0  0  0  0  0
  -15.0311    4.6125   24.9845 F   0  0  0  0  0  0  0  0  0  0  0  0
  -15.2123    4.8525   27.0594 F   0  0  0  0  0  0  0  0  0  0  0  0
  -15.6231    2.9591   26.1605 F   0  0  0  0  0  0  0  0  0  0  0  0
   -9.0378    5.4081   27.3288 C   0  0  0  0  0  0  0  0  0  0  0  0
   -8.7581    6.4619   27.1340 C   0  0  0  0  0  0  0  0  0  0  0  0
  3  4  1  0
  6 13  1  0
  1 19  1  0
 10 20  1  0
 20 21  1  0
 20 22  1  0
 20 23  1  0
  2 24  1  0
 24 25  2  0
  4  8  2  0
  8  9  1  0
  9 10  2  0
 10 11  1  0
 11 12  2  0
 12  4  1  0
  1  2  2  0
  2  3  1  0
  3  7  2  0
  7  6  1  0
  6  5  2  0
  5  1  1  0
 13 14  2  0
 14 15  1  0
 15 16  2  0
 16 18  1  0
 18 17  2  0
 17 13  1  0
M  END
$$$$
