No_2733-complexes_sdf/6BKW-FPZ/2024-09-17-14-21-01/
     RDKit          3D

 19 20  0  0  0  0  0  0  0  0999 V2000
   -7.9040    3.9820   27.1177 C   0  0  0  0  0  0  0  0  0  0  0  0
   -8.2057    2.8231   26.8733 C   0  0  0  0  0  0  0  0  0  0  0  0
   -7.0130    4.3706   28.1140 C   0  0  0  0  0  0  0  0  0  0  0  0
   -7.3740    1.7588   27.2586 C   0  0  0  0  0  0  0  0  0  0  0  0
   -6.1366    2.1529   27.9510 C   0  0  0  0  0  0  0  0  0  0  0  0
   -5.1470    1.1721   28.3027 C   0  0  0  0  0  0  0  0  0  0  0  0
   -5.9560    3.5278   28.3358 C   0  0  0  0  0  0  0  0  0  0  0  0
   -3.8194    1.4817   28.4951 C   0  0  0  0  0  0  0  0  0  0  0  0
   -5.5937   -0.1938   28.4707 C   0  0  0  0  0  0  0  0  0  0  0  0
   -8.8827    5.2483   26.8447 C   0  0  1  0  0  0  0  0  0  0  0  0
   -8.4029    6.5109   26.7173 C   0  0  0  0  0  0  0  0  0  0  0  0
  -10.1667    4.9056   26.2904 C   0  0  0  0  0  0  0  0  0  0  0  0
   -4.6928   -1.1596   28.9885 C   0  0  0  0  0  0  0  0  0  0  0  0
   -2.9000    0.4894   28.9288 C   0  0  0  0  0  0  0  0  0  0  0  0
   -3.3735   -0.8322   29.1455 C   0  0  0  0  0  0  0  0  0  0  0  0
   -8.1084    7.6842   26.7779 N   0  0  0  0  0  0  0  0  0  0  0  0
  -11.1783    4.6200   27.1421 C   0  0  0  0  0  0  0  0  0  0  0  0
  -12.4570    4.1891   26.7976 C   0  0  0  0  0  0  0  0  0  0  0  0
  -12.6572    4.0035   25.4202 C   0  0  0  0  0  0  0  0  0  0  0  0
  5  6  1  0
  1 10  1  0
 10 11  1  6
 10 12  1  0
 11 16  3  0
 12 17  1  0
 17 18  2  3
 18 19  1  0
  1  2  2  0
  2  4  1  0
  4  5  2  0
  5  7  1  0
  7  3  2  0
  3  1  1  0
  6  8  2  0
  8 14  1  0
 14 15  2  0
 15 13  1  0
 13  9  2  0
  9  6  1  0
M  END
$$$$
