No_2480-complexes_sdf/6BKW-FPZ/2024-09-17-14-21-01/
     RDKit          3D

 40 43  0  0  0  0  0  0  0  0999 V2000
   -7.7129    4.2099   27.0854 C   0  0  0  0  0  0  0  0  0  0  0  0
   -8.9133    4.4736   27.0998 C   0  0  0  0  0  0  0  0  0  0  0  0
   -9.7937    3.7368   26.2091 C   0  0  0  0  0  0  0  0  0  0  0  0
   -7.2496    2.8647   26.8496 C   0  0  0  0  0  0  0  0  0  0  0  0
   -8.1891    1.9790   26.3454 C   0  0  0  0  0  0  0  0  0  0  0  0
   -9.4252    2.4603   26.0121 C   0  0  0  0  0  0  0  0  0  0  0  0
   -9.3121    5.9663   27.2474 C   0  0  0  0  0  0  0  0  0  0  0  0
   -7.7466    0.5946   26.1401 C   0  0  0  0  0  0  0  0  0  0  0  0
   -7.9508    0.1236   25.0622 O   0  0  0  0  0  0  0  0  0  0  0  0
   -7.1092   -0.0488   27.1221 O   0  0  0  0  0  0  0  0  0  0  0  0
   -8.4271    7.0346   26.9091 C   0  0  0  0  0  0  0  0  0  0  0  0
   -7.1178    6.8220   26.9101 N   0  0  0  0  0  0  0  0  0  0  0  0
   -8.8961    8.2939   27.0890 N   0  0  0  0  0  0  0  0  0  0  0  0
   -6.1334   -0.0152   27.5105 C   0  0  0  0  0  0  0  0  0  0  0  0
   -5.1528   -1.0389   27.3035 C   0  0  0  0  0  0  0  0  0  0  0  0
   -3.8808   -0.7108   27.2804 C   0  0  0  0  0  0  0  0  0  0  0  0
   -2.8671   -1.6269   26.7709 C   0  0  0  0  0  0  0  0  0  0  0  0
   -3.2399   -2.8996   26.4252 C   0  0  0  0  0  0  0  0  0  0  0  0
   -4.6075   -3.1885   26.4486 C   0  0  0  0  0  0  0  0  0  0  0  0
   -5.5582   -2.2802   26.8327 C   0  0  0  0  0  0  0  0  0  0  0  0
   -3.2809    0.6324   27.6672 C   0  0  0  0  0  0  0  0  0  0  0  0
   -4.0620    1.5450   28.2560 O   0  0  0  0  0  0  0  0  0  0  0  0
   -2.0405    0.8894   27.4968 O   0  0  0  0  0  0  0  0  0  0  0  0
   -5.0179   -4.5464   25.9800 C   0  0  0  0  0  0  0  0  0  0  0  0
   -4.4471   -5.2153   25.2637 C   0  0  0  0  0  0  0  0  0  0  0  0
   -4.8370   -6.5805   24.8614 C   0  0  0  0  0  0  0  0  0  0  0  0
   -6.0991   -6.9533   25.3082 C   0  0  0  0  0  0  0  0  0  0  0  0
   -6.8431   -6.1453   26.0861 C   0  0  0  0  0  0  0  0  0  0  0  0
   -6.3727   -4.9201   26.4864 C   0  0  0  0  0  0  0  0  0  0  0  0
   -8.1643   -6.5993   26.5782 C   0  0  0  0  0  0  0  0  0  0  0  0
   -8.9811   -5.9040   26.5448 O   0  0  0  0  0  0  0  0  0  0  0  0
   -8.0940   -7.6342   27.3607 O   0  0  0  0  0  0  0  0  0  0  0  0
  -10.4019    1.5659   25.3518 C   0  0  0  0  0  0  0  0  0  0  0  0
  -11.3721    1.1032   26.0145 N   0  0  0  0  0  0  0  0  0  0  0  0
  -11.9577    1.7428   26.9439 C   0  0  0  0  0  0  0  0  0  0  0  0
  -11.7741   -0.2998   25.8463 C   0  0  0  0  0  0  0  0  0  0  0  0
  -12.8622    1.2091   27.8594 C   0  0  0  0  0  0  0  0  0  0  0  0
  -12.7067   -0.8756   26.7017 C   0  0  0  0  0  0  0  0  0  0  0  0
  -13.2598   -0.1277   27.7273 C   0  0  0  0  0  0  0  0  0  0  0  0
  -14.2252   -0.7394   28.6513 C   0  0  0  0  0  0  0  0  0  0  0  0
  2  7  1  0
  5  8  1  0
  8  9  2  0
  8 10  1  0
  7 11  1  0
 11 12  1  0
 11 13  2  0
 10 14  1  0
 14 15  1  0
 16 21  1  0
 21 22  2  0
 21 23  1  0
 19 24  1  0
 28 30  1  0
 30 31  2  0
 30 32  1  0
  6 33  1  0
 33 34  1  0
 34 35  1  0
 34 36  1  0
 37 39  1  0
 38 39  1  0
 39 40  1  0
 35 37  1  0
 38 36  1  0
 15 16  2  0
 16 17  1  0
 17 18  2  0
 18 19  1  0
 19 20  2  0
 20 15  1  0
 24 25  2  0
 25 26  1  0
 26 27  2  0
 27 28  1  0
 28 29  2  0
 29 24  1  0
  1  2  2  0
  2  3  1  0
  3  6  2  0
  6  5  1  0
  5  4  2  0
  4  1  1  0
M  END
$$$$
