No_2698-complexes_sdf/6BKW-FPZ/2024-09-17-14-21-01/
     RDKit          3D

 13 14  0  0  0  0  0  0  0  0999 V2000
   -7.9040    3.9820   27.1177 C   0  0  0  0  0  0  0  0  0  0  0  0
   -7.8663    4.8694   27.9238 C   0  0  0  0  0  0  0  0  0  0  0  0
   -9.0501    3.8017   26.2617 C   0  0  0  0  0  0  0  0  0  0  0  0
   -9.1826    2.7026   25.3575 C   0  0  0  0  0  0  0  0  0  0  0  0
   -8.6940    6.0131   27.8614 C   0  0  0  0  0  0  0  0  0  0  0  0
   -9.7382    4.9916   26.1006 C   0  0  0  0  0  0  0  0  0  0  0  0
   -9.6356    6.0254   26.9506 C   0  0  0  0  0  0  0  0  0  0  0  0
   -8.7370    1.4548   25.8020 C   0  0  0  0  0  0  0  0  0  0  0  0
   -8.9047    0.3350   24.9830 C   0  0  0  0  0  0  0  0  0  0  0  0
   -8.4094   -0.8818   25.4410 C   0  0  0  0  0  0  0  0  0  0  0  0
   -7.6974   -0.9812   26.6626 C   0  0  0  0  0  0  0  0  0  0  0  0
   -7.5373    0.1305   27.4714 C   0  0  0  0  0  0  0  0  0  0  0  0
   -7.9912    1.3248   27.0797 C   0  0  0  0  0  0  0  0  0  0  0  0
  3  4  1  0
  4  8  1  0
  8  9  2  0
  9 10  1  0
 10 11  2  0
 11 12  1  0
 12 13  2  0
 13  8  1  0
  1  2  2  0
  2  5  1  0
  5  7  2  0
  7  6  1  0
  6  3  2  0
  3  1  1  0
M  END
$$$$
