No_2147-complexes_sdf/6BKW-FPZ/2024-09-17-14-21-01/
     RDKit          3D

 13 13  0  0  0  0  0  0  0  0999 V2000
   -7.7129    4.2099   27.0854 C   0  0  0  0  0  0  0  0  0  0  0  0
   -8.2112    3.0637   26.9225 C   0  0  0  0  0  0  0  0  0  0  0  0
   -8.5108    5.3904   26.9436 C   0  0  0  0  0  0  0  0  0  0  0  0
   -9.7256    5.1955   26.3518 C   0  0  0  0  0  0  0  0  0  0  0  0
   -9.4995    2.8258   26.4878 C   0  0  0  0  0  0  0  0  0  0  0  0
  -10.2542    3.9691   26.2055 C   0  0  0  0  0  0  0  0  0  0  0  0
   -7.9168    6.7086   27.1908 C   0  0  0  0  0  0  0  0  0  0  0  0
   -7.2060    1.6352   27.3301 Cl  0  0  0  0  0  0  0  0  0  0  0  0
   -8.5983    7.8100   26.8065 N   0  0  0  0  0  0  0  0  0  0  0  0
   -6.8327    6.7828   27.8075 O   0  0  0  0  0  0  0  0  0  0  0  0
  -11.5841    3.7764   25.6132 C   0  0  0  0  0  0  0  0  0  0  0  0
  -12.6947    3.4934   26.4009 C   0  0  0  0  0  0  0  0  0  0  0  0
  -13.9573    3.4065   25.8485 C   0  0  0  0  0  0  0  0  0  0  0  0
  3  7  1  0
  2  8  1  0
  7  9  1  0
  7 10  2  0
  6 11  1  0
 11 12  2  3
 12 13  1  0
  1  2  2  0
  2  5  1  0
  5  6  2  0
  6  4  1  0
  4  3  2  0
  3  1  1  0
M  END
$$$$
