No_2764-complexes_sdf/6BKW-FPZ/2024-09-17-14-21-01/
     RDKit          3D

 40 44  0  0  0  0  0  0  0  0999 V2000
   -7.2496    3.8871   27.4508 C   0  0  0  0  0  0  0  0  0  0  0  0
   -7.9379    4.9063   27.8518 C   0  0  0  0  0  0  0  0  0  0  0  0
   -9.3460    4.8223   27.8695 C   0  0  0  0  0  0  0  0  0  0  0  0
   -7.8628    2.6163   27.1065 C   0  0  0  0  0  0  0  0  0  0  0  0
   -9.2787    2.5744   27.1970 C   0  0  0  0  0  0  0  0  0  0  0  0
  -10.0108    3.6770   27.6340 C   0  0  0  0  0  0  0  0  0  0  0  0
  -11.4834    3.5674   27.7432 C   0  0  0  0  0  0  0  0  0  0  0  0
  -12.3295    3.8838   27.2730 C   0  0  0  0  0  0  0  0  0  0  0  0
  -13.6530    3.9000   27.3565 C   0  0  0  0  0  0  0  0  0  0  0  0
  -14.1068    3.2372   28.5143 C   0  0  0  0  0  0  0  0  0  0  0  0
  -13.2042    2.6864   29.3508 C   0  0  0  0  0  0  0  0  0  0  0  0
  -11.8124    2.8411   29.0601 C   0  0  0  0  0  0  0  0  0  0  0  0
   -7.1106    1.4653   26.7662 C   0  0  0  0  0  0  0  0  0  0  0  0
   -7.5882    0.7127   25.8592 O   0  0  0  0  0  0  0  0  0  0  0  0
   -5.9817    1.2245   27.3753 O   0  0  0  0  0  0  0  0  0  0  0  0
   -7.3049    6.0865   28.1473 O   0  0  0  0  0  0  0  0  0  0  0  0
   -5.4256   -0.0513   27.5084 C   0  0  0  0  0  0  0  0  0  0  0  0
   -4.4653   -0.1911   27.8145 C   0  0  0  0  0  0  0  0  0  0  0  0
   -3.8369   -1.5539   28.1127 C   0  0  0  0  0  0  0  0  0  0  0  0
   -4.6306   -2.6212   27.8261 C   0  0  0  0  0  0  0  0  0  0  0  0
   -5.9511   -2.3588   27.4205 C   0  0  0  0  0  0  0  0  0  0  0  0
   -6.3952   -1.0706   27.3143 C   0  0  0  0  0  0  0  0  0  0  0  0
   -3.3579    0.9532   28.1807 C   0  0  0  0  0  0  0  0  0  0  0  0
  -13.5973    1.9381   30.5784 C   0  0  0  0  0  0  0  0  0  0  0  0
  -14.8609    2.0053   30.7875 O   0  0  0  0  0  0  0  0  0  0  0  0
  -15.2593    1.8002   31.9845 C   0  0  0  0  0  0  0  0  0  0  0  0
  -15.3349    2.5421   32.9344 C   0  0  0  0  0  0  0  0  0  0  0  0
  -15.3114    3.8817   32.5826 C   0  0  0  0  0  0  0  0  0  0  0  0
  -14.6402    4.8140   32.9498 C   0  0  0  0  0  0  0  0  0  0  0  0
  -14.7199    6.2367   32.4531 C   0  0  0  0  0  0  0  0  0  0  0  0
  -15.6035    6.3966   31.3650 C   0  0  0  0  0  0  0  0  0  0  0  0
  -16.2182    4.4072   31.4791 C   0  0  0  0  0  0  0  0  0  0  0  0
  -16.3299    5.5410   30.9929 C   0  0  0  0  0  0  0  0  0  0  0  0
  -13.6152    4.7535   34.1021 C   0  0  0  0  0  0  0  0  0  0  0  0
  -12.5252    3.9528   33.9542 C   0  0  0  0  0  0  0  0  0  0  0  0
  -11.5604    3.8393   34.9472 C   0  0  0  0  0  0  0  0  0  0  0  0
  -11.6853    4.5718   36.1576 C   0  0  0  0  0  0  0  0  0  0  0  0
  -12.8020    5.4819   36.2978 C   0  0  0  0  0  0  0  0  0  0  0  0
  -13.7352    5.5887   35.2448 C   0  0  0  0  0  0  0  0  0  0  0  0
  -12.8397    6.3779   37.4702 C   0  0  0  0  0  0  0  0  0  0  0  0
  6  7  1  0
  4 13  1  0
 13 14  2  0
 13 15  1  0
  2 16  1  0
 15 17  1  0
 18 23  1  0
 11 24  1  0
 24 25  1  0
 25 26  1  0
 26 27  3  0
 27 28  1  0
 29 34  1  0
 38 40  1  0
 28 29  1  0
 29 30  2  0
 30 31  1  0
 31 33  2  0
 33 32  1  0
 32 28  2  0
  1  2  2  0
  2  3  1  0
  3  6  2  0
  6  5  1  0
  5  4  2  0
  4  1  1  0
  7  8  2  0
  8  9  1  0
  9 10  2  0
 10 11  1  0
 11 12  2  0
 12  7  1  0
 34 35  2  0
 35 36  1  0
 36 37  2  0
 37 38  1  0
 38 39  2  0
 39 34  1  0
 17 18  2  0
 18 19  1  0
 19 20  2  0
 20 21  1  0
 21 22  2  0
 22 17  1  0
M  END
$$$$
