No_2030-complexes_sdf/6BKW-FPZ/2024-09-17-14-21-01/
     RDKit          3D

 17 18  0  0  0  0  0  0  0  0999 V2000
   -7.9040    3.9820   27.1177 C   0  0  0  0  0  0  0  0  0  0  0  0
   -7.8663    4.8694   27.9238 C   0  0  0  0  0  0  0  0  0  0  0  0
   -9.0501    3.8017   26.2617 C   0  0  0  0  0  0  0  0  0  0  0  0
   -9.1826    2.7026   25.3575 C   0  0  0  0  0  0  0  0  0  0  0  0
   -8.6940    6.0131   27.8614 C   0  0  0  0  0  0  0  0  0  0  0  0
   -9.9755    4.8547   26.2361 C   0  0  0  0  0  0  0  0  0  0  0  0
   -9.7463    5.9398   27.0364 C   0  0  0  0  0  0  0  0  0  0  0  0
  -10.1068    2.7543   24.3357 C   0  0  0  0  0  0  0  0  0  0  0  0
  -10.9412    3.9321   24.2588 C   0  0  0  0  0  0  0  0  0  0  0  0
  -10.8832    4.8692   25.1581 C   0  0  0  0  0  0  0  0  0  0  0  0
  -11.9570    4.0492   23.2415 C   0  0  2  0  0  0  0  0  0  0  0  0
  -13.3266    4.0472   23.5091 C   0  0  0  0  0  0  0  0  0  0  0  0
  -11.5231    4.1029   21.8557 C   0  0  0  0  0  0  0  0  0  0  0  0
  -13.9321    3.2044   23.6595 C   0  0  0  0  0  0  0  0  0  0  0  0
  -13.4269    1.8688   23.6752 C   0  0  0  0  0  0  0  0  0  0  0  0
  -14.3263    0.7879   23.9980 C   0  0  0  0  0  0  0  0  0  0  0  0
  -15.6286    1.0869   24.1056 C   0  0  0  0  0  0  0  0  0  0  0  0
  9 11  1  0
 11 12  1  0
 11 13  1  6
 12 14  2  3
 14 15  1  0
 15 16  2  3
 16 17  1  0
  3  4  2  0
  4  8  1  0
  8  9  2  0
  9 10  1  0
 10  6  2  0
  1  2  2  0
  2  5  1  0
  5  7  2  0
  7  6  1  0
  6  3  1  0
  3  1  1  0
M  END
$$$$
