No_2045-complexes_sdf/6BKW-FPZ/2024-09-17-14-21-01/
     RDKit          3D

 17 19  0  0  0  0  0  0  0  0999 V2000
   -7.9040    3.9820   27.1177 C   0  0  0  0  0  0  0  0  0  0  0  0
   -7.8663    4.8694   27.9238 C   0  0  0  0  0  0  0  0  0  0  0  0
   -7.4698    2.6989   27.4277 C   0  0  0  0  0  0  0  0  0  0  0  0
   -7.9683    1.5964   26.8266 C   0  0  1  0  0  0  0  0  0  0  0  0
   -8.9446    1.7923   25.8533 C   0  0  0  0  0  0  0  0  0  0  0  0
   -9.4405    2.9988   25.5757 C   0  0  0  0  0  0  0  0  0  0  0  0
   -8.9424    4.1117   26.2388 C   0  0  0  0  0  0  0  0  0  0  0  0
   -8.0525    6.0889   27.7934 N   0  0  0  0  0  0  0  0  0  0  0  0
   -7.4750    0.3802   27.0739 N   0  0  0  0  0  0  0  0  0  0  0  0
   -6.2629    0.1937   27.6809 C   0  0  0  0  0  0  0  0  0  0  0  0
   -5.8401   -1.1271   28.0256 C   0  0  0  0  0  0  0  0  0  0  0  0
   -8.1615   -0.7635   26.8550 C   0  0  0  0  0  0  0  0  0  0  0  0
   -7.8480   -2.0294   27.2758 C   0  0  0  0  0  0  0  0  0  0  0  0
   -6.6298   -2.1786   27.9087 C   0  0  0  0  0  0  0  0  0  0  0  0
   -9.4443    5.4129   25.9463 C   0  0  0  0  0  0  0  0  0  0  0  0
   -8.9218    6.4697   26.7919 C   0  0  0  0  0  0  0  0  0  0  0  0
   -9.3665   -0.6257   26.3053 O   0  0  0  0  0  0  0  0  0  0  0  0
  1  3  1  0
  3  4  1  0
  4  5  1  0
  5  6  1  0
  6  7  1  0
  4  9  1  6
  9 10  1  0
  9 12  1  0
 12 13  1  0
 11 14  1  0
 12 17  2  0
 10 11  1  0
 14 13  1  0
  1  2  2  0
  2  8  1  0
  8 16  2  0
 16 15  1  0
 15  7  2  0
  7  1  1  0
M  END
$$$$
