No_2859-complexes_sdf/6BKW-FPZ/2024-09-17-14-21-01/
     RDKit          3D

 27 29  0  0  0  0  0  0  0  0999 V2000
   -7.9040    3.9820   27.1177 C   0  0  0  0  0  0  0  0  0  0  0  0
   -7.8663    4.8694   27.9238 C   0  0  0  0  0  0  0  0  0  0  0  0
   -7.4547    2.7080   27.4594 C   0  0  0  0  0  0  0  0  0  0  0  0
   -7.9337    1.5946   26.8372 C   0  0  0  0  0  0  0  0  0  0  0  0
   -8.9032    1.7881   25.8510 C   0  0  0  0  0  0  0  0  0  0  0  0
   -9.3787    2.9871   25.5530 C   0  0  0  0  0  0  0  0  0  0  0  0
   -8.9781    4.0300   26.2200 C   0  0  0  0  0  0  0  0  0  0  0  0
   -7.0491    4.9785   28.9506 N   0  0  0  0  0  0  0  0  0  0  0  0
   -8.5066    6.1761   27.6951 N   0  0  0  0  0  0  0  0  0  0  0  0
  -10.3476    3.1209   24.4117 C   0  0  0  0  0  0  0  0  0  0  0  0
  -10.8796    4.3242   24.0715 C   0  0  0  0  0  0  0  0  0  0  0  0
  -11.7540    4.5643   23.0098 C   0  0  0  0  0  0  0  0  0  0  0  0
  -12.1214    3.4907   22.2418 C   0  0  0  0  0  0  0  0  0  0  0  0
  -11.5758    2.2182   22.5253 C   0  0  0  0  0  0  0  0  0  0  0  0
  -10.7042    2.0495   23.5721 C   0  0  0  0  0  0  0  0  0  0  0  0
   -7.3488    0.2616   27.1231 C   0  0  0  0  0  0  0  0  0  0  0  0
   -7.9857   -0.7027   27.3439 O   0  0  0  0  0  0  0  0  0  0  0  0
   -6.1383    0.3138   27.7429 O   0  0  0  0  0  0  0  0  0  0  0  0
   -5.5015   -0.8162   28.1209 C   0  0  1  0  0  0  0  0  0  0  0  0
   -4.2952   -0.6509   28.3942 C   0  0  0  0  0  0  0  0  0  0  0  0
   -3.6268    0.5874   28.2523 C   0  0  0  0  0  0  0  0  0  0  0  0
   -3.2983   -1.6916   27.7662 C   0  0  0  0  0  0  0  0  0  0  0  0
   -4.0922   -0.9223   30.0256 C   0  0  0  0  0  0  0  0  0  0  0  0
   -4.8711   -1.5425   30.6966 C   0  0  0  0  0  0  0  0  0  0  0  0
   -5.8870   -2.2730   30.3880 C   0  0  0  0  0  0  0  0  0  0  0  0
   -6.2860   -1.3518   29.4422 C   0  0  2  0  0  0  0  0  0  0  0  0
   -7.6410   -1.0386   29.5222 O   0  0  0  0  0  0  0  0  0  0  0  0
  1  2  1  0
  2  8  1  0
  2  9  1  0
  6 10  1  0
  4 16  1  0
 16 17  2  0
 16 18  1  0
 19 18  1  1
 19 20  1  0
 20 21  1  0
 20 22  1  0
 20 23  1  0
 23 24  1  0
 19 26  1  0
 25 26  1  0
 26 27  1  6
 25 24  1  0
 10 11  2  0
 11 12  1  0
 12 13  2  0
 13 14  1  0
 14 15  2  0
 15 10  1  0
  1  3  2  0
  3  4  1  0
  4  5  2  0
  5  6  1  0
  6  7  2  0
  7  1  1  0
M  END
$$$$
