No_253-complexes_sdf/6BKW-FPZ/2024-09-17-14-21-01/
     RDKit          3D

 23 24  0  0  0  0  0  0  0  0999 V2000
   -7.7129    4.2099   27.0854 C   0  0  0  0  0  0  0  0  0  0  0  0
   -8.9133    4.4736   27.0998 C   0  0  0  0  0  0  0  0  0  0  0  0
   -9.7937    3.7368   26.2091 C   0  0  0  0  0  0  0  0  0  0  0  0
   -7.2495    2.8647   26.8496 C   0  0  0  0  0  0  0  0  0  0  0  0
   -8.1891    1.9790   26.3454 C   0  0  0  0  0  0  0  0  0  0  0  0
   -9.4252    2.4603   26.0121 C   0  0  0  0  0  0  0  0  0  0  0  0
   -9.3121    5.9663   27.2474 C   0  0  0  0  0  0  0  0  0  0  0  0
   -7.7466    0.5946   26.1401 C   0  0  0  0  0  0  0  0  0  0  0  0
   -8.5120   -0.3666   26.7982 F   0  0  0  0  0  0  0  0  0  0  0  0
   -6.5084    0.3951   26.6959 F   0  0  0  0  0  0  0  0  0  0  0  0
   -7.6846    0.2140   24.8780 F   0  0  0  0  0  0  0  0  0  0  0  0
   -8.4151    7.0443   26.9393 C   0  0  0  0  0  0  0  0  0  0  0  0
   -7.2939    6.9599   27.4499 F   0  0  0  0  0  0  0  0  0  0  0  0
   -8.9586    8.2334   27.4744 F   0  0  0  0  0  0  0  0  0  0  0  0
   -8.3762    7.1720   25.5974 F   0  0  0  0  0  0  0  0  0  0  0  0
  -11.1150    4.2020   25.7938 C   0  0  0  0  0  0  0  0  0  0  0  0
  -12.2326    3.9275   26.5791 C   0  0  0  0  0  0  0  0  0  0  0  0
  -12.1804    3.8423   27.9301 C   0  0  0  0  0  0  0  0  0  0  0  0
  -13.3338    3.6086   28.7628 C   0  0  0  0  0  0  0  0  0  0  0  0
  -14.5561    3.5949   28.1165 C   0  0  0  0  0  0  0  0  0  0  0  0
  -13.5198    3.9283   26.0144 C   0  0  0  0  0  0  0  0  0  0  0  0
  -14.6521    3.7763   26.7628 C   0  0  0  0  0  0  0  0  0  0  0  0
  -11.2193    4.3437   24.5040 O   0  0  0  0  0  0  0  0  0  0  0  0
  2  7  1  0
  5  8  1  0
  8  9  1  0
  8 10  1  0
  8 11  1  0
  7 12  1  0
 12 13  1  0
 12 14  1  0
 12 15  1  0
  3 16  1  0
 16 17  1  0
 16 23  2  0
 17 18  2  0
 18 19  1  0
 19 20  2  0
 20 22  1  0
 22 21  2  0
 21 17  1  0
  1  2  2  0
  2  3  1  0
  3  6  2  0
  6  5  1  0
  5  4  2  0
  4  1  1  0
M  END
$$$$
