No_238-complexes_sdf/6BKW-FPZ/2024-09-17-14-21-01/
     RDKit          3D

 17 17  0  0  0  0  0  0  0  0999 V2000
   -7.9040    3.9820   27.1177 C   0  0  0  0  0  0  0  0  0  0  0  0
   -8.2057    2.8231   26.8733 C   0  0  0  0  0  0  0  0  0  0  0  0
   -8.7695    5.0740   26.7916 C   0  0  0  0  0  0  0  0  0  0  0  0
   -9.9618    4.7598   26.1630 C   0  0  0  0  0  0  0  0  0  0  0  0
   -9.4200    2.4524   26.2850 C   0  0  0  0  0  0  0  0  0  0  0  0
  -10.7989    5.8003   25.8260 C   0  0  0  0  0  0  0  0  0  0  0  0
  -10.2599    3.4425   25.9002 C   0  0  0  0  0  0  0  0  0  0  0  0
   -7.4198    1.5491   27.2309 C   0  0  0  0  0  0  0  0  0  0  0  0
   -7.8674    0.3413   27.2113 N   0  0  0  0  0  0  0  0  0  0  0  0
   -6.2169    1.7767   27.7333 O   0  0  0  0  0  0  0  0  0  0  0  0
   -7.1022   -0.8061   27.6530 C   0  0  0  0  0  0  0  0  0  0  0  0
   -6.8127   -1.5709   26.8155 C   0  0  0  0  0  0  0  0  0  0  0  0
   -7.3377   -1.6330   25.5885 C   0  0  0  0  0  0  0  0  0  0  0  0
   -6.6554   -1.0930   24.5593 C   0  0  0  0  0  0  0  0  0  0  0  0
   -7.0257   -1.1617   23.1296 C   0  0  0  0  0  0  0  0  0  0  0  0
   -8.2885   -1.5769   22.8500 C   0  0  0  0  0  0  0  0  0  0  0  0
   -8.7165   -1.5596   21.5052 C   0  0  0  0  0  0  0  0  0  0  0  0
  4  6  1  0
  2  8  1  0
  8  9  1  0
  8 10  2  0
  9 11  1  0
 11 12  1  0
 12 13  1  0
 13 14  2  3
 14 15  1  0
 15 16  2  3
 16 17  1  0
  1  2  2  0
  2  5  1  0
  5  7  2  0
  7  4  1  0
  4  3  2  0
  3  1  1  0
M  END
$$$$
