No_2680-complexes_sdf/6BKW-FPZ/2024-09-17-14-21-01/
     RDKit          3D

 37 41  0  0  0  0  0  0  0  0999 V2000
   -7.9040    3.9820   27.1177 C   0  0  0  0  0  0  0  0  0  0  0  0
   -9.0711    4.3164   27.0630 C   0  0  0  0  0  0  0  0  0  0  0  0
   -9.5182    5.5541   27.5777 C   0  0  0  0  0  0  0  0  0  0  0  0
   -6.9424    4.7983   27.8424 C   0  0  0  0  0  0  0  0  0  0  0  0
   -7.3526    5.9739   28.3909 C   0  0  0  0  0  0  0  0  0  0  0  0
   -8.6479    6.3742   28.2170 C   0  0  0  0  0  0  0  0  0  0  0  0
  -10.0621    3.4422   26.3345 C   0  0  0  0  0  0  0  0  0  0  0  0
   -9.6335    2.6185   25.4370 C   0  0  0  0  0  0  0  0  0  0  0  0
  -10.4839    1.8300   24.6020 C   0  0  0  0  0  0  0  0  0  0  0  0
  -11.8333    2.0895   24.6570 C   0  0  0  0  0  0  0  0  0  0  0  0
  -11.4620    3.7184   26.2542 C   0  0  0  0  0  0  0  0  0  0  0  0
  -12.3183    3.0606   25.5409 C   0  0  0  0  0  0  0  0  0  0  0  0
   -9.9306    0.8050   23.6976 C   0  0  0  0  0  0  0  0  0  0  0  0
  -10.3913   -0.1542   23.5995 C   0  0  0  0  0  0  0  0  0  0  0  0
   -9.8311   -1.2142   22.5994 C   0  0  0  0  0  0  0  0  0  0  0  0
   -8.6765   -0.8634   21.9112 C   0  0  0  0  0  0  0  0  0  0  0  0
   -8.1115   -1.8101   21.0500 C   0  0  2  0  0  0  0  0  0  0  0  0
   -8.6505    1.2399   23.0246 C   0  0  0  0  0  0  0  0  0  0  0  0
   -8.1133    0.3791   22.1748 C   0  0  0  0  0  0  0  0  0  0  0  0
   -6.8043   -2.2680   21.2855 C   0  0  0  0  0  0  0  0  0  0  0  0
   -6.1408   -1.8390   22.5162 C   0  0  0  0  0  0  0  0  0  0  0  0
   -5.7216   -2.9437   23.4433 C   0  0  0  0  0  0  0  0  0  0  0  0
   -5.3550   -3.9658   22.8891 C   0  0  0  0  0  0  0  0  0  0  0  0
   -5.6707   -4.3488   21.5609 C   0  0  0  0  0  0  0  0  0  0  0  0
   -6.4996   -3.5742   20.8163 C   0  0  0  0  0  0  0  0  0  0  0  0
   -8.6181   -1.9880   19.7470 C   0  0  0  0  0  0  0  0  0  0  0  0
   -9.7293   -2.5722   19.6408 C   0  0  0  0  0  0  0  0  0  0  0  0
  -10.3649   -2.7295   18.8026 C   0  0  0  0  0  0  0  0  0  0  0  0
   -9.9786   -2.1950   17.4722 C   0  0  0  0  0  0  0  0  0  0  0  0
   -8.6778   -1.8461   17.4002 C   0  0  0  0  0  0  0  0  0  0  0  0
   -7.9519   -1.6191   18.5547 C   0  0  0  0  0  0  0  0  0  0  0  0
   -5.1362   -2.3487   24.6875 C   0  0  0  0  0  0  0  0  0  0  0  0
   -5.3228   -1.2394   25.0675 O   0  0  0  0  0  0  0  0  0  0  0  0
   -4.9639   -3.2629   25.6077 O   0  0  0  0  0  0  0  0  0  0  0  0
  -10.7328   -2.4560   16.1970 C   0  0  0  0  0  0  0  0  0  0  0  0
  -10.4791   -3.3904   15.4092 C   0  0  0  0  0  0  0  0  0  0  0  0
  -11.2194   -3.5191   14.1965 C   0  0  0  0  0  0  0  0  0  0  0  0
  2  7  1  0
  9 13  1  0
 17 16  1  6
 17 26  1  0
 22 32  1  0
 32 33  1  0
 32 34  2  0
 29 35  1  0
 35 36  2  3
 36 37  1  0
 17 20  1  0
  1  2  2  0
  2  3  1  0
  3  6  2  0
  6  5  1  0
  5  4  2  0
  4  1  1  0
 13 14  2  0
 14 15  1  0
 15 16  2  0
 16 19  1  0
 19 18  2  0
 18 13  1  0
 20 21  2  0
 21 22  1  0
 22 23  2  0
 23 24  1  0
 24 25  2  0
 25 20  1  0
 26 27  2  0
 27 28  1  0
 28 29  2  0
 29 30  1  0
 30 31  2  0
 31 26  1  0
  7  8  2  0
  8  9  1  0
  9 10  2  0
 10 12  1  0
 12 11  2  0
 11  7  1  0
M  END
$$$$
