No_2292-complexes_sdf/6BKW-FPZ/2024-09-17-14-21-01/
     RDKit          3D

 23 25  0  0  0  0  0  0  0  0999 V2000
   -7.9040    3.9820   27.1177 C   0  0  0  0  0  0  0  0  0  0  0  0
   -8.2057    2.8231   26.8733 C   0  0  0  0  0  0  0  0  0  0  0  0
   -8.7695    5.0740   26.7916 C   0  0  0  0  0  0  0  0  0  0  0  0
   -9.9618    4.7598   26.1630 C   0  0  0  0  0  0  0  0  0  0  0  0
   -7.3763    1.7038   27.3414 C   0  0  0  0  0  0  0  0  0  0  0  0
   -9.4134    2.4504   26.3004 C   0  0  0  0  0  0  0  0  0  0  0  0
  -10.2558    3.4522   25.9218 C   0  0  0  0  0  0  0  0  0  0  0  0
   -6.7485    0.8320   26.7248 C   0  0  0  0  0  0  0  0  0  0  0  0
   -5.8861   -0.1256   27.3689 C   0  0  0  0  0  0  0  0  0  0  0  0
   -5.1880    0.3045   28.4697 C   0  0  0  0  0  0  0  0  0  0  0  0
   -5.4513    1.5807   29.0236 C   0  0  0  0  0  0  0  0  0  0  0  0
   -6.4115    2.3301   28.5061 C   0  0  0  0  0  0  0  0  0  0  0  0
   -8.4349    6.5159   27.0524 C   0  0  0  0  0  0  0  0  0  0  0  0
   -8.1006    7.6273   26.4745 Cl  0  0  0  0  0  0  0  0  0  0  0  0
   -4.1177   -0.5697   29.0641 C   0  0  0  0  0  0  0  0  0  0  0  0
   -4.1474   -1.0070   30.2215 C   0  0  0  0  0  0  0  0  0  0  0  0
   -5.2117   -0.8784   31.0896 C   0  0  0  0  0  0  0  0  0  0  0  0
   -5.1765   -1.3789   32.4418 C   0  0  0  0  0  0  0  0  0  0  0  0
   -3.9895   -1.8683   32.9303 C   0  0  0  0  0  0  0  0  0  0  0  0
   -2.8978   -1.5264   30.8323 C   0  0  0  0  0  0  0  0  0  0  0  0
   -2.8441   -1.9517   32.1608 C   0  0  0  0  0  0  0  0  0  0  0  0
   -3.0364   -0.8527   28.0724 C   0  0  0  0  0  0  0  0  0  0  0  0
   -2.2943    0.2106   27.6395 C   0  0  0  0  0  0  0  0  0  0  0  0
  2  5  1  0
  3 13  1  0
 13 14  1  0
 10 15  1  0
 15 16  1  0
 15 22  1  0
 22 23  1  0
  5  8  2  0
  8  9  1  0
  9 10  2  0
 10 11  1  0
 11 12  2  0
 12  5  1  0
  1  2  2  0
  2  6  1  0
  6  7  2  0
  7  4  1  0
  4  3  2  0
  3  1  1  0
 16 17  2  0
 17 18  1  0
 18 19  2  0
 19 21  1  0
 21 20  2  0
 20 16  1  0
M  END
$$$$
