No_239-complexes_sdf/6BKW-FPZ/2024-09-17-14-21-01/
     RDKit          3D

 40 43  0  0  0  0  0  0  0  0999 V2000
   -7.2496    3.8871   27.4508 C   0  0  0  0  0  0  0  0  0  0  0  0
   -7.9379    4.9063   27.8518 C   0  0  0  0  0  0  0  0  0  0  0  0
   -9.3460    4.8223   27.8695 C   0  0  0  0  0  0  0  0  0  0  0  0
   -7.8628    2.6163   27.1065 C   0  0  0  0  0  0  0  0  0  0  0  0
   -9.2787    2.5744   27.1970 C   0  0  0  0  0  0  0  0  0  0  0  0
  -10.0108    3.6770   27.6340 C   0  0  0  0  0  0  0  0  0  0  0  0
  -11.4855    3.5731   27.7420 C   0  0  2  0  0  0  0  0  0  0  0  0
  -12.4831    4.6400   27.4873 Cl  0  0  0  0  0  0  0  0  0  0  0  0
  -12.0025    2.3557   28.4312 C   0  0  0  0  0  0  0  0  0  0  0  0
  -12.9318    2.4274   29.3656 C   0  0  0  0  0  0  0  0  0  0  0  0
  -13.4266    3.6727   29.8487 C   0  0  0  0  0  0  0  0  0  0  0  0
  -14.2987    4.1426   30.0735 C   0  0  0  0  0  0  0  0  0  0  0  0
  -15.5530    3.4663   30.0863 C   0  0  0  0  0  0  0  0  0  0  0  0
  -15.3518    2.0703   29.8530 C   0  0  0  0  0  0  0  0  0  0  0  0
  -14.0912    1.4661   29.3819 C   0  0  0  0  0  0  0  0  0  0  0  0
   -7.0846    1.4857   26.7624 C   0  0  2  0  0  0  0  0  0  0  0  0
   -7.7247    0.6120   26.0126 O   0  0  0  0  0  0  0  0  0  0  0  0
   -7.1251   -0.5208   25.6487 C   0  0  0  0  0  0  0  0  0  0  0  0
   -7.4387    6.1129   28.2858 O   0  0  0  0  0  0  0  0  0  0  0  0
   -6.0234    1.0611   27.5860 C   0  0  0  0  0  0  0  0  0  0  0  0
   -5.2907   -0.0966   27.3557 C   0  0  0  0  0  0  0  0  0  0  0  0
   -5.9366   -0.9104   26.3356 C   0  0  0  0  0  0  0  0  0  0  0  0
   -4.1173   -0.4261   28.0494 C   0  0  1  0  0  0  0  0  0  0  0  0
   -4.1583   -1.4130   28.7545 C   0  0  0  0  0  0  0  0  0  0  0  0
   -3.5701   -1.7206   29.7121 C   0  0  0  0  0  0  0  0  0  0  0  0
   -3.6891   -2.9327   30.5598 C   0  0  0  0  0  0  0  0  0  0  0  0
   -4.7001   -3.7419   30.2097 C   0  0  0  0  0  0  0  0  0  0  0  0
   -5.4850   -3.4198   29.1435 C   0  0  0  0  0  0  0  0  0  0  0  0
   -5.3263   -2.2617   28.4603 C   0  0  0  0  0  0  0  0  0  0  0  0
   -7.6643   -1.2659   24.6498 C   0  0  0  0  0  0  0  0  0  0  0  0
   -7.1328   -2.2013   24.1104 O   0  0  0  0  0  0  0  0  0  0  0  0
   -8.9269   -0.9626   24.1613 N   0  0  0  0  0  0  0  0  0  0  0  0
   -9.5733   -1.1583   23.2967 C   0  0  0  0  0  0  0  0  0  0  0  0
   -2.9014   -0.3175   27.0911 C   0  0  0  0  0  0  0  0  0  0  0  0
   -2.4652   -1.1173   26.4115 C   0  0  0  0  0  0  0  0  0  0  0  0
   -3.0935   -2.4446   26.2811 C   0  0  0  0  0  0  0  0  0  0  0  0
   -2.4260   -3.4204   25.4456 C   0  0  0  0  0  0  0  0  0  0  0  0
   -3.1637   -4.5718   25.1780 C   0  0  0  0  0  0  0  0  0  0  0  0
   -4.4133   -4.7815   25.8034 C   0  0  0  0  0  0  0  0  0  0  0  0
   -5.0628   -5.9741   25.5838 C   0  0  0  0  0  0  0  0  0  0  0  0
  6  7  1  0
  7  8  1  1
  7  9  1  0
 16  4  1  1
 16 17  1  0
 17 18  1  0
  2 19  1  0
 16 20  1  0
 20 21  2  0
 18 22  2  0
 21 22  1  0
 23 21  1  6
 18 30  1  0
 30 31  2  0
 30 32  1  0
 32 33  1  0
 23 34  1  0
 34 35  2  3
 35 36  1  0
 36 37  1  0
 37 38  2  3
 38 39  1  0
 39 40  2  0
  9 10  1  0
 23 24  1  0
 24 25  2  0
 25 26  1  0
 26 27  2  0
 27 28  1  0
 28 29  2  0
 29 24  1  0
  1  2  2  0
  2  3  1  0
  3  6  2  0
  6  5  1  0
  5  4  2  0
  4  1  1  0
 10 11  2  0
 11 12  1  0
 12 13  2  0
 13 14  1  0
 14 15  2  0
 15 10  1  0
M  END
$$$$
