No_2508-complexes_sdf/6BKW-FPZ/2024-09-17-14-21-01/
     RDKit          3D

 37 42  0  0  0  0  0  0  0  0999 V2000
   -7.7129    4.2099   27.0854 C   0  0  0  0  0  0  0  0  0  0  0  0
   -7.7814    5.1722   27.8972 C   0  0  0  0  0  0  0  0  0  0  0  0
   -7.3155    2.9699   27.6145 C   0  0  0  0  0  0  0  0  0  0  0  0
   -7.9010    1.7962   27.2023 C   0  0  0  0  0  0  0  0  0  0  0  0
   -8.9578    1.9047   26.2707 C   0  0  0  0  0  0  0  0  0  0  0  0
   -9.3989    3.1000   25.8096 C   0  0  0  0  0  0  0  0  0  0  0  0
   -8.8948    4.1615   26.3218 C   0  0  0  0  0  0  0  0  0  0  0  0
   -8.2271    6.4668   27.5438 N   0  0  0  0  0  0  0  0  0  0  0  0
   -9.1092    6.6799   26.5572 C   0  0  0  0  0  0  0  0  0  0  0  0
   -9.5065    5.5006   25.9551 C   0  0  0  0  0  0  0  0  0  0  0  0
   -7.2777    0.5034   27.5378 C   0  0  0  0  0  0  0  0  0  0  0  0
   -6.6326   -0.2564   26.8607 C   0  0  0  0  0  0  0  0  0  0  0  0
   -6.0238   -1.4632   27.3354 C   0  0  0  0  0  0  0  0  0  0  0  0
   -6.1761   -1.8404   28.6510 C   0  0  0  0  0  0  0  0  0  0  0  0
   -7.0224   -1.0544   29.4166 C   0  0  0  0  0  0  0  0  0  0  0  0
   -7.5158    0.0407   28.9628 C   0  0  0  0  0  0  0  0  0  0  0  0
  -10.4073    3.0321   24.7580 C   0  0  0  0  0  0  0  0  0  0  0  0
  -11.6262    3.5827   24.9499 C   0  0  0  0  0  0  0  0  0  0  0  0
  -10.0749    2.4817   23.5043 C   0  0  0  0  0  0  0  0  0  0  0  0
  -10.7527    2.7202   22.3592 C   0  0  0  0  0  0  0  0  0  0  0  0
  -12.4808    3.8345   23.7948 C   0  0  0  0  0  0  0  0  0  0  0  0
  -12.0565    3.2925   22.5115 C   0  0  0  0  0  0  0  0  0  0  0  0
   -5.5709   -3.0955   29.1768 C   0  0  0  0  0  0  0  0  0  0  0  0
   -6.2193   -4.0599   29.4373 C   0  0  0  0  0  0  0  0  0  0  0  0
   -5.6781   -5.2173   29.9782 C   0  0  0  0  0  0  0  0  0  0  0  0
   -4.2764   -5.2447   30.1576 C   0  0  0  0  0  0  0  0  0  0  0  0
   -4.1166   -3.0068   29.3918 C   0  0  0  0  0  0  0  0  0  0  0  0
   -3.4863   -4.1100   29.8937 C   0  0  0  0  0  0  0  0  0  0  0  0
   -3.3733   -1.8665   29.1321 N   0  0  0  0  0  0  0  0  0  0  0  0
   -3.4352   -0.8145   28.7754 C   0  0  2  0  0  0  0  0  0  0  0  0
   -3.6894    0.3261   29.6654 C   0  0  0  0  0  0  0  0  0  0  0  0
   -4.0988   -0.5504   27.4919 C   0  0  1  0  0  0  0  0  0  0  0  0
   -2.9364    0.2681   26.7927 C   0  0  0  0  0  0  0  0  0  0  0  0
   -4.1158   -1.6894   26.6998 C   0  0  2  0  0  0  0  0  0  0  0  0
   -6.2015   -2.6294   26.2946 C   0  0  0  0  0  0  0  0  0  0  0  0
   -2.8382   -1.8402   25.9283 C   0  0  0  0  0  0  0  0  0  0  0  0
   -5.2161   -2.3792   26.1597 C   0  0  0  0  0  0  0  0  0  0  0  0
  4 11  1  0
  6 17  1  0
 14 23  1  0
 27 29  1  0
 29 30  1  0
 30 31  1  1
 30 32  1  0
 32 33  1  6
 32 34  1  0
 13 35  1  0
 34 36  1  6
 34 37  1  0
 35 37  1  0
  1  2  2  0
  2  8  1  0
  8  9  2  0
  9 10  1  0
 10  7  2  0
 17 18  2  0
 18 21  1  0
 21 22  2  0
 22 20  1  0
 20 19  2  0
 19 17  1  0
  1  3  1  0
  3  4  2  0
  4  5  1  0
  5  6  2  0
  6  7  1  0
  7  1  1  0
 23 24  2  0
 24 25  1  0
 25 26  2  0
 26 28  1  0
 28 27  2  0
 27 23  1  0
 11 12  2  0
 12 13  1  0
 13 14  2  0
 14 15  1  0
 15 16  2  0
 16 11  1  0
M  END
$$$$
