No_2389-complexes_sdf/6BKW-FPZ/2024-09-17-14-21-01/
     RDKit          3D

 26 28  0  0  0  0  0  0  0  0999 V2000
   -7.7129    4.2099   27.0854 C   0  0  0  0  0  0  0  0  0  0  0  0
   -8.9133    4.4736   27.0998 C   0  0  0  0  0  0  0  0  0  0  0  0
   -9.7135    3.9633   26.0300 C   0  0  0  0  0  0  0  0  0  0  0  0
   -6.8420    4.9760   28.0851 C   0  0  0  0  0  0  0  0  0  0  0  0
   -9.6552    4.2399   24.9004 C   0  0  0  0  0  0  0  0  0  0  0  0
  -10.4285    3.7872   23.7716 C   0  0  0  0  0  0  0  0  0  0  0  0
  -11.2878    2.7733   24.0202 C   0  0  0  0  0  0  0  0  0  0  0  0
  -10.6472    2.9342   26.2617 C   0  0  0  0  0  0  0  0  0  0  0  0
  -11.4383    2.3799   25.3157 C   0  0  0  0  0  0  0  0  0  0  0  0
   -9.5235    5.3555   28.0318 C   0  0  0  0  0  0  0  0  0  0  0  0
   -7.4463    5.9299   28.8751 C   0  0  0  0  0  0  0  0  0  0  0  0
   -8.7326    6.1170   28.8225 N   0  0  0  0  0  0  0  0  0  0  0  0
  -12.1340    2.2838   22.9074 C   0  0  0  0  0  0  0  0  0  0  0  0
  -12.2832    2.6454   21.8904 O   0  0  0  0  0  0  0  0  0  0  0  0
  -12.8727    1.0566   23.1881 N   0  0  0  0  0  0  0  0  0  0  0  0
  -13.6630    0.4703   22.2387 C   0  0  2  0  0  0  0  0  0  0  0  0
  -14.8735    0.8259   22.0883 C   0  0  0  0  0  0  0  0  0  0  0  0
  -15.6537    1.0944   23.1420 C   0  0  0  0  0  0  0  0  0  0  0  0
  -17.0590    1.5174   23.0641 C   0  0  0  0  0  0  0  0  0  0  0  0
  -17.5810    1.5829   21.7779 C   0  0  0  0  0  0  0  0  0  0  0  0
  -16.8554    1.2955   20.6811 C   0  0  0  0  0  0  0  0  0  0  0  0
  -15.5139    0.9175   20.7948 C   0  0  0  0  0  0  0  0  0  0  0  0
  -17.4176    1.3875   19.4984 F   0  0  0  0  0  0  0  0  0  0  0  0
  -12.9936   -0.5982   21.6295 C   0  0  0  0  0  0  0  0  0  0  0  0
  -12.1467   -0.4440   20.6237 C   0  0  0  0  0  0  0  0  0  0  0  0
  -11.4828   -1.5408   19.9942 C   0  0  0  0  0  0  0  0  0  0  0  0
  2  3  1  0
  7 13  1  0
 13 14  2  0
 13 15  1  0
 16 15  1  1
 16 17  1  0
 21 23  1  0
 16 24  1  0
 24 25  2  3
 25 26  1  0
 17 18  2  0
 18 19  1  0
 19 20  2  0
 20 21  1  0
 21 22  2  0
 22 17  1  0
  3  5  2  0
  5  6  1  0
  6  7  2  0
  7  9  1  0
  9  8  2  0
  8  3  1  0
  1  2  2  0
  2 10  1  0
 10 12  2  0
 12 11  1  0
 11  4  2  0
  4  1  1  0
M  END
$$$$
