No_2267-complexes_sdf/6BKW-FPZ/2024-09-17-14-21-01/
     RDKit          3D

 39 45  0  0  0  0  0  0  0  0999 V2000
   -7.7129    4.2099   27.0854 C   0  0  0  0  0  0  0  0  0  0  0  0
   -7.7814    5.1722   27.8972 C   0  0  0  0  0  0  0  0  0  0  0  0
   -8.8998    3.8713   26.3707 C   0  0  0  0  0  0  0  0  0  0  0  0
   -9.1401    2.5906   25.9433 C   0  0  0  0  0  0  0  0  0  0  0  0
   -8.5962    6.2844   27.4570 C   0  0  0  0  0  0  0  0  0  0  0  0
   -8.5087    1.5506   26.5766 C   0  0  0  0  0  0  0  0  0  0  0  0
   -8.7268    0.2041   26.2286 C   0  0  0  0  0  0  0  0  0  0  0  0
   -9.6710    6.1295   26.6250 C   0  0  0  0  0  0  0  0  0  0  0  0
   -9.7981    4.8813   26.0823 C   0  0  0  0  0  0  0  0  0  0  0  0
   -9.6235   -0.0019   25.2267 C   0  0  0  0  0  0  0  0  0  0  0  0
   -9.9308    2.2112   24.8473 C   0  0  0  0  0  0  0  0  0  0  0  0
  -10.1758    0.9769   24.4766 C   0  0  0  0  0  0  0  0  0  0  0  0
   -8.1322   -0.9228   27.0138 C   0  0  0  0  0  0  0  0  0  0  0  0
   -8.8180   -1.4210   27.9823 C   0  0  0  0  0  0  0  0  0  0  0  0
   -8.2846   -2.4274   28.8674 C   0  0  0  0  0  0  0  0  0  0  0  0
   -6.9307   -2.6982   28.7839 C   0  0  0  0  0  0  0  0  0  0  0  0
   -6.7340   -1.1016   26.9389 C   0  0  0  0  0  0  0  0  0  0  0  0
   -6.1421   -2.0443   27.7923 C   0  0  0  0  0  0  0  0  0  0  0  0
   -6.7318    5.5772   28.6971 O   0  0  0  0  0  0  0  0  0  0  0  0
  -11.0350    0.6688   23.3528 C   0  0  0  0  0  0  0  0  0  0  0  0
  -10.7989   -0.1995   22.6029 C   0  0  0  0  0  0  0  0  0  0  0  0
   -9.6293   -0.9836   22.7060 C   0  0  0  0  0  0  0  0  0  0  0  0
   -9.1760   -1.1889   24.1056 C   0  0  0  0  0  0  0  0  0  0  0  0
  -10.3080   -1.1665   28.2073 C   0  0  0  0  0  0  0  0  0  0  0  0
  -10.8585   -0.0116   28.1032 C   0  0  0  0  0  0  0  0  0  0  0  0
  -12.2615    0.2119   28.3948 C   0  0  0  0  0  0  0  0  0  0  0  0
  -13.0025   -0.8587   28.7717 C   0  0  0  0  0  0  0  0  0  0  0  0
  -11.1377   -2.2093   28.5938 C   0  0  0  0  0  0  0  0  0  0  0  0
  -12.4312   -2.0680   28.9034 C   0  0  0  0  0  0  0  0  0  0  0  0
  -12.8235    1.6090   28.2376 C   0  0  0  0  0  0  0  0  0  0  0  0
  -13.4012    2.1455   28.9268 C   0  0  0  0  0  0  0  0  0  0  0  0
  -13.7445    3.3642   29.1951 C   0  0  0  0  0  0  0  0  0  0  0  0
  -14.4717    4.0192   30.2876 C   0  0  0  0  0  0  0  0  0  0  0  0
  -14.6702    3.1950   31.3952 C   0  0  0  0  0  0  0  0  0  0  0  0
  -14.3142    1.9055   31.3316 C   0  0  0  0  0  0  0  0  0  0  0  0
  -13.6436    1.3779   30.3372 C   0  0  0  0  0  0  0  0  0  0  0  0
  -13.4649    4.3719   28.0369 C   0  0  0  0  0  0  0  0  0  0  0  0
  -13.3786    3.9507   26.7853 C   0  0  0  0  0  0  0  0  0  0  0  0
  -12.4757    2.1795   26.9242 C   0  0  0  0  0  0  0  0  0  0  0  0
  3  4  1  0
  7 13  1  0
  2 19  1  0
 14 24  1  0
 26 30  1  0
 24 25  2  0
 25 26  1  0
 26 27  2  0
 27 29  1  0
 29 28  2  0
 28 24  1  0
 32 33  2  0
 33 34  1  0
 34 35  2  0
 35 36  1  0
 36 31  2  0
  1  2  2  0
  2  5  1  0
  5  8  2  0
  8  9  1  0
  9  3  2  0
  3  1  1  0
 13 14  1  0
 14 15  2  0
 15 16  1  0
 16 18  2  0
 18 17  1  0
 17 13  2  0
 12 20  1  0
 20 21  2  0
 21 22  1  0
 22 23  2  0
 23 10  1  0
 30 31  1  0
 31 32  1  0
 32 37  1  0
 37 38  2  0
 38 39  1  0
 39 30  2  0
  4  6  2  0
  6  7  1  0
  7 10  2  0
 10 12  1  0
 12 11  2  0
 11  4  1  0
M  END
$$$$
