No_2406-complexes_sdf/6BKW-FPZ/2024-09-17-14-21-01/
     RDKit          3D

 30 34  0  0  0  0  0  0  0  0999 V2000
   -7.7129    4.2099   27.0854 C   0  0  0  0  0  0  0  0  0  0  0  0
   -7.7814    5.1722   27.8972 C   0  0  0  0  0  0  0  0  0  0  0  0
   -7.3155    2.9699   27.6145 C   0  0  0  0  0  0  0  0  0  0  0  0
   -7.6814    1.8188   26.9581 C   0  0  0  0  0  0  0  0  0  0  0  0
   -7.2010    0.5770   27.3247 C   0  0  0  0  0  0  0  0  0  0  0  0
   -7.8389   -0.6073   26.9665 C   0  0  0  0  0  0  0  0  0  0  0  0
   -8.9524   -0.4639   26.1062 C   0  0  0  0  0  0  0  0  0  0  0  0
   -9.3616    0.7293   25.6203 C   0  0  0  0  0  0  0  0  0  0  0  0
   -8.7531    1.9077   26.1134 C   0  0  0  0  0  0  0  0  0  0  0  0
   -8.5546    6.3542   27.5976 C   0  0  0  0  0  0  0  0  0  0  0  0
   -8.6013    6.7127   26.2698 C   0  0  0  0  0  0  0  0  0  0  0  0
   -9.0690    5.6128   25.4491 C   0  0  0  0  0  0  0  0  0  0  0  0
   -8.4673    4.3154   25.8714 C   0  0  0  0  0  0  0  0  0  0  0  0
   -9.0746    3.1535   25.3605 N   0  0  0  0  0  0  0  0  0  0  0  0
   -9.8551    3.1997   24.2557 C   0  0  0  0  0  0  0  0  0  0  0  0
  -10.8648    4.3408   24.3660 C   0  0  0  0  0  0  0  0  0  0  0  0
  -10.1424    5.5296   24.6294 C   0  0  0  0  0  0  0  0  0  0  0  0
   -7.4081   -1.8995   27.5063 C   0  0  0  0  0  0  0  0  0  0  0  0
   -6.3527   -2.2691   27.6269 O   0  0  0  0  0  0  0  0  0  0  0  0
   -8.4707   -2.6213   28.0035 O   0  0  0  0  0  0  0  0  0  0  0  0
   -8.4037   -3.1910   29.0747 C   0  0  0  0  0  0  0  0  0  0  0  0
   -9.4496   -2.9588   29.9642 C   0  0  0  0  0  0  0  0  0  0  0  0
   -9.3902   -3.4666   31.3668 C   0  0  0  0  0  0  0  0  0  0  0  0
   -8.2184   -4.1434   31.7471 C   0  0  0  0  0  0  0  0  0  0  0  0
   -7.2121   -4.2856   30.8341 C   0  0  0  0  0  0  0  0  0  0  0  0
   -7.2688   -3.7665   29.6214 C   0  0  0  0  0  0  0  0  0  0  0  0
   -8.2610   -4.6653   33.1613 C   0  0  0  0  0  0  0  0  0  0  0  0
   -7.1738   -4.5250   33.7494 F   0  0  0  0  0  0  0  0  0  0  0  0
   -9.1861   -3.9787   33.8593 F   0  0  0  0  0  0  0  0  0  0  0  0
   -8.5957   -5.9258   33.0690 F   0  0  0  0  0  0  0  0  0  0  0  0
  3  4  1  0
  9 14  1  0
 13 14  1  0
 14 15  1  0
 15 16  1  0
 12 17  1  0
 16 17  1  0
  6 18  1  0
 18 19  2  0
 18 20  1  0
 20 21  1  0
 24 27  1  0
 27 28  1  0
 27 29  1  0
 27 30  1  0
  3  1  1  0
  4  5  2  0
  5  6  1  0
  6  7  2  0
  7  8  1  0
  8  9  2  0
  9  4  1  0
  1  2  2  0
  2 10  1  0
 10 11  2  0
 11 12  1  0
 12 13  2  0
 13  1  1  0
 21 22  2  0
 22 23  1  0
 23 24  2  0
 24 25  1  0
 25 26  2  0
 26 21  1  0
M  END
$$$$
