No_2929-complexes_sdf/6BKW-FPZ/2024-09-17-14-21-01/
     RDKit          3D

 20 22  0  0  0  0  0  0  0  0999 V2000
   -7.9040    3.9820   27.1177 C   0  0  0  0  0  0  0  0  0  0  0  0
   -8.2057    2.8231   26.8733 C   0  0  0  0  0  0  0  0  0  0  0  0
   -9.2962    2.4021   26.1155 C   0  0  0  0  0  0  0  0  0  0  0  0
   -8.8403    4.9695   26.9329 C   0  0  0  0  0  0  0  0  0  0  0  0
   -8.6045    6.4001   27.2264 C   0  0  0  0  0  0  0  0  0  0  0  0
  -10.2136    3.3588   25.8175 C   0  0  0  0  0  0  0  0  0  0  0  0
  -11.3539    3.1035   25.0774 C   0  0  0  0  0  0  0  0  0  0  0  0
   -9.9565    4.6734   26.1698 C   0  0  0  0  0  0  0  0  0  0  0  0
  -11.4063    2.0840   24.1480 C   0  0  0  0  0  0  0  0  0  0  0  0
  -12.3901    1.9702   23.3127 C   0  0  0  0  0  0  0  0  0  0  0  0
  -13.4911    2.9104   23.3278 C   0  0  0  0  0  0  0  0  0  0  0  0
  -13.4358    3.9892   24.1811 C   0  0  0  0  0  0  0  0  0  0  0  0
  -12.3599    4.1608   25.0195 C   0  0  0  0  0  0  0  0  0  0  0  0
   -7.9223    7.3855   26.7688 N   0  0  0  0  0  0  0  0  0  0  0  0
   -7.1554    1.6374   27.1882 C   0  0  0  0  0  0  0  0  0  0  0  0
   -7.3897    0.3104   26.9240 C   0  0  0  0  0  0  0  0  0  0  0  0
   -6.3732   -0.4830   26.8458 C   0  0  0  0  0  0  0  0  0  0  0  0
   -5.1189   -0.1560   27.5187 C   0  0  0  0  0  0  0  0  0  0  0  0
   -4.9781    1.1846   28.0050 C   0  0  0  0  0  0  0  0  0  0  0  0
   -5.8822    2.0748   27.7779 C   0  0  0  0  0  0  0  0  0  0  0  0
  4  5  1  0
  6  7  1  0
  5 14  1  0
  2 15  1  0
 15 16  2  0
 16 17  1  0
 17 18  2  0
 18 19  1  0
 19 20  2  0
 20 15  1  0
  7  9  2  0
  9 10  1  0
 10 11  2  0
 11 12  1  0
 12 13  2  0
 13  7  1  0
  1  2  2  0
  2  3  1  0
  3  6  2  0
  6  8  1  0
  8  4  2  0
  4  1  1  0
M  END
$$$$
