No_2711-complexes_sdf/6BKW-FPZ/2024-09-17-14-21-01/
     RDKit          3D

 18 19  0  0  0  0  0  0  0  0999 V2000
   -7.7129    4.2099   27.0854 C   0  0  0  0  0  0  0  0  0  0  0  0
   -7.7814    5.1722   27.8972 C   0  0  0  0  0  0  0  0  0  0  0  0
   -8.8998    3.8713   26.3707 C   0  0  0  0  0  0  0  0  0  0  0  0
   -9.9938    4.6774   26.5446 C   0  0  0  0  0  0  0  0  0  0  0  0
   -8.8079    6.0757   27.7107 C   0  0  0  0  0  0  0  0  0  0  0  0
  -11.1004    4.3371   25.7053 C   0  0  0  0  0  0  0  0  0  0  0  0
   -9.9236    5.8663   27.1277 C   0  0  0  0  0  0  0  0  0  0  0  0
  -11.5050    3.3054   25.7780 C   0  0  0  0  0  0  0  0  0  0  0  0
  -12.7226    2.9112   25.0304 C   0  0  0  0  0  0  0  0  0  0  0  0
  -13.2192    3.8431   24.1165 C   0  0  0  0  0  0  0  0  0  0  0  0
  -12.4730    4.9733   23.8445 C   0  0  0  0  0  0  0  0  0  0  0  0
  -11.4165    5.3114   24.6199 C   0  0  0  0  0  0  0  0  0  0  0  0
   -6.6696    5.6255   28.5959 O   0  0  0  0  0  0  0  0  0  0  0  0
  -13.4540    1.7539   25.2094 N   0  0  0  0  0  0  0  0  0  0  0  0
  -14.3837    1.3446   24.7958 C   0  0  0  0  0  0  0  0  0  0  0  0
  -14.9767    0.5310   24.4508 C   0  0  0  0  0  0  0  0  0  0  0  0
  -14.3830   -0.7901   24.7355 C   0  0  0  0  0  0  0  0  0  0  0  0
  -13.1931   -0.6999   25.4784 C   0  0  0  0  0  0  0  0  0  0  0  0
  4  6  1  0
  2 13  1  0
  9 14  1  0
 14 15  2  3
 15 16  1  0
 16 17  2  3
 17 18  1  0
  6  8  2  0
  8  9  1  0
  9 10  2  0
 10 11  1  0
 11 12  2  0
 12  6  1  0
  1  2  2  0
  2  5  1  0
  5  7  2  0
  7  4  1  0
  4  3  2  0
  3  1  1  0
M  END
$$$$
