No_2705-complexes_sdf/6BKW-FPZ/2024-09-17-14-21-01/
     RDKit          3D

 17 18  0  0  0  0  0  0  0  0999 V2000
   -7.7129    4.2099   27.0854 C   0  0  0  0  0  0  0  0  0  0  0  0
   -7.7814    5.1722   27.8972 C   0  0  0  0  0  0  0  0  0  0  0  0
   -8.8776    3.8408   26.3416 C   0  0  0  0  0  0  0  0  0  0  0  0
   -9.9844    4.6492   26.4743 C   0  0  0  0  0  0  0  0  0  0  0  0
   -8.8033    6.1375   27.8728 C   0  0  0  0  0  0  0  0  0  0  0  0
   -9.9554    5.8280   27.1736 C   0  0  0  0  0  0  0  0  0  0  0  0
   -8.8740    2.6184   25.5584 C   0  0  0  0  0  0  0  0  0  0  0  0
   -8.2513    1.5373   26.0855 N   0  0  0  0  0  0  0  0  0  0  0  0
   -8.7273    0.5083   26.3952 C   0  0  0  0  0  0  0  0  0  0  0  0
   -7.9403   -0.5293   27.0887 C   0  0  0  0  0  0  0  0  0  0  0  0
  -10.1275    0.1368   26.2412 C   0  0  0  0  0  0  0  0  0  0  0  0
   -8.4611   -1.6897   27.6344 C   0  0  0  0  0  0  0  0  0  0  0  0
  -10.6154   -1.0750   26.7497 C   0  0  0  0  0  0  0  0  0  0  0  0
   -7.5976   -2.5623   28.3673 C   0  0  0  0  0  0  0  0  0  0  0  0
   -9.8306   -1.9237   27.5154 C   0  0  0  0  0  0  0  0  0  0  0  0
   -6.4945   -2.2898   28.6066 C   0  0  0  0  0  0  0  0  0  0  0  0
   -5.8579   -1.0290   28.0494 C   0  0  0  0  0  0  0  0  0  0  0  0
  3  7  1  0
  7  8  1  0
  8  9  1  0
 12 14  1  0
 14 16  2  3
 16 17  1  0
  9 10  2  0
 10 12  1  0
 12 15  2  0
 15 13  1  0
 13 11  2  0
 11  9  1  0
  1  2  2  0
  2  5  1  0
  5  6  2  0
  6  4  1  0
  4  3  2  0
  3  1  1  0
M  END
$$$$
