No_2177-complexes_sdf/6BKW-FPZ/2024-09-17-14-21-01/
     RDKit          3D

 23 24  0  0  0  0  0  0  0  0999 V2000
   -7.9040    3.9820   27.1177 C   0  0  0  0  0  0  0  0  0  0  0  0
   -8.2057    2.8231   26.8733 C   0  0  0  0  0  0  0  0  0  0  0  0
   -8.7695    5.0740   26.7916 C   0  0  0  0  0  0  0  0  0  0  0  0
   -8.4337    6.4678   27.0913 C   0  0  0  0  0  0  0  0  0  0  0  0
   -7.3775    1.6806   27.3986 C   0  0  0  0  0  0  0  0  0  0  0  0
   -7.6795    0.3394   27.2177 C   0  0  0  0  0  0  0  0  0  0  0  0
   -6.9317   -0.6286   27.8039 C   0  0  0  0  0  0  0  0  0  0  0  0
   -5.7202   -0.2551   28.4199 C   0  0  0  0  0  0  0  0  0  0  0  0
   -5.3006    1.0801   28.4292 C   0  0  0  0  0  0  0  0  0  0  0  0
   -6.0372    2.0526   27.9340 C   0  0  0  0  0  0  0  0  0  0  0  0
   -9.2632    7.5050   26.7060 C   0  0  0  0  0  0  0  0  0  0  0  0
   -9.5081    2.4405   26.5580 C   0  0  0  0  0  0  0  0  0  0  0  0
  -10.3852    3.4745   26.1349 C   0  0  0  0  0  0  0  0  0  0  0  0
   -9.9905    4.8179   26.2855 C   0  0  0  0  0  0  0  0  0  0  0  0
   -7.0918    6.7407   27.6401 C   0  0  0  0  0  0  0  0  0  0  0  0
   -4.6727   -1.1946   29.0262 C   0  0  0  0  0  0  0  0  0  0  0  0
   -4.8546   -1.9984   29.6977 F   0  0  0  0  0  0  0  0  0  0  0  0
   -3.9466   -1.7033   27.8878 F   0  0  0  0  0  0  0  0  0  0  0  0
   -3.6254   -0.4135   29.6637 F   0  0  0  0  0  0  0  0  0  0  0  0
  -11.6832    3.1820   25.5555 C   0  0  0  0  0  0  0  0  0  0  0  0
  -11.6944    1.9297   25.1512 F   0  0  0  0  0  0  0  0  0  0  0  0
  -12.5991    3.4016   26.4735 F   0  0  0  0  0  0  0  0  0  0  0  0
  -11.8622    4.0011   24.4858 F   0  0  0  0  0  0  0  0  0  0  0  0
  3  4  1  0
  4 11  2  0
  4 15  1  0
  8 16  1  0
 16 17  1  0
 16 18  1  0
 16 19  1  0
 13 20  1  0
 20 21  1  0
 20 22  1  0
 20 23  1  0
  5  2  1  0
  1  2  2  0
  2 12  1  0
 12 13  2  0
 13 14  1  0
 14  3  2  0
  3  1  1  0
  5  6  2  0
  6  7  1  0
  7  8  2  0
  8  9  1  0
  9 10  2  0
 10  5  1  0
M  END
$$$$
