No_244-complexes_sdf/6BKW-FPZ/2024-09-17-14-21-01/
     RDKit          3D

 16 17  0  0  0  0  0  0  0  0999 V2000
   -7.9040    3.9820   27.1177 C   0  0  0  0  0  0  0  0  0  0  0  0
   -7.8663    4.8694   27.9238 C   0  0  0  0  0  0  0  0  0  0  0  0
   -9.0491    3.8523   26.2542 C   0  0  0  0  0  0  0  0  0  0  0  0
   -8.7661    5.9491   27.9690 C   0  0  0  0  0  0  0  0  0  0  0  0
   -9.9295    4.8502   26.2323 C   0  0  0  0  0  0  0  0  0  0  0  0
   -9.8077    5.9288   27.0933 C   0  0  0  0  0  0  0  0  0  0  0  0
   -7.0146    2.9513   27.1368 F   0  0  0  0  0  0  0  0  0  0  0  0
   -9.1015    2.7190   25.2776 C   0  0  0  0  0  0  0  0  0  0  0  0
   -8.7417    1.5910   25.6089 N   0  0  0  0  0  0  0  0  0  0  0  0
   -9.4839    3.0269   24.0006 N   0  0  0  0  0  0  0  0  0  0  0  0
   -8.9045    0.6093   24.6731 C   0  0  0  0  0  0  0  0  0  0  0  0
   -9.8604    1.9727   23.3027 C   0  0  0  0  0  0  0  0  0  0  0  0
   -9.4227    0.7230   23.5059 C   0  0  0  0  0  0  0  0  0  0  0  0
  -10.3770    2.3016   21.9955 N   0  0  0  0  0  0  0  0  0  0  0  0
  -10.6961    1.3760   21.0921 C   0  0  0  0  0  0  0  0  0  0  0  0
  -10.3167    0.0017   21.3508 C   0  0  0  0  0  0  0  0  0  0  0  0
  1  7  1  0
  3  8  1  0
 12 14  1  0
 14 15  2  3
 15 16  1  0
  8  9  2  0
  9 11  1  0
 11 13  2  0
 13 12  1  0
 12 10  2  0
 10  8  1  0
  1  2  2  0
  2  4  1  0
  4  6  2  0
  6  5  1  0
  5  3  2  0
  3  1  1  0
M  END
$$$$
