No_2300-complexes_sdf/6BKW-FPZ/2024-09-17-14-21-01/
     RDKit          3D

 16 17  0  0  0  0  0  0  0  0999 V2000
   -7.7129    4.2099   27.0854 C   0  0  0  0  0  0  0  0  0  0  0  0
   -8.2112    3.0637   26.9225 C   0  0  0  0  0  0  0  0  0  0  0  0
   -8.5108    5.3904   26.9436 C   0  0  0  0  0  0  0  0  0  0  0  0
   -9.7256    5.1955   26.3518 C   0  0  0  0  0  0  0  0  0  0  0  0
   -9.4995    2.8258   26.4878 C   0  0  0  0  0  0  0  0  0  0  0  0
  -10.2542    3.9691   26.2055 C   0  0  0  0  0  0  0  0  0  0  0  0
   -7.9435    6.6171   27.1653 N   0  0  0  0  0  0  0  0  0  0  0  0
   -7.3694    1.8186   27.2504 C   0  0  0  0  0  0  0  0  0  0  0  0
   -6.3645    2.1108   27.9465 F   0  0  0  0  0  0  0  0  0  0  0  0
   -7.6707    0.5762   26.8548 C   0  0  0  0  0  0  0  0  0  0  0  0
   -6.9937   -0.2308   26.6552 C   0  0  0  0  0  0  0  0  0  0  0  0
   -6.7811   -1.3513   26.4131 C   0  0  0  0  0  0  0  0  0  0  0  0
   -5.5399   -2.1651   26.2373 C   0  0  0  0  0  0  0  0  0  0  0  0
   -4.3636   -1.5167   26.4497 C   0  0  0  0  0  0  0  0  0  0  0  0
   -4.3724   -0.1501   26.7331 C   0  0  0  0  0  0  0  0  0  0  0  0
   -5.4365    0.4666   26.8655 C   0  0  0  0  0  0  0  0  0  0  0  0
  3  7  1  0
  2  8  1  0
  8  9  1  0
  8 10  1  0
 10 11  1  0
 11 12  2  0
 12 13  1  0
 13 14  2  0
 14 15  1  0
 15 16  2  0
 16 11  1  0
  1  2  2  0
  2  5  1  0
  5  6  2  0
  6  4  1  0
  4  3  2  0
  3  1  1  0
M  END
$$$$
