No_2458-complexes_sdf/6BKW-FPZ/2024-09-17-14-21-01/
     RDKit          3D

 10 10  0  0  0  0  0  0  0  0999 V2000
   -7.9040    3.9820   27.1177 C   0  0  0  0  0  0  0  0  0  0  0  0
   -8.2057    2.8231   26.8733 C   0  0  0  0  0  0  0  0  0  0  0  0
   -7.4766    1.7477   27.4593 C   0  0  0  0  0  0  0  0  0  0  0  0
   -7.5078    4.6347   27.8842 C   0  0  0  0  0  0  0  0  0  0  0  0
   -7.7025    0.3906   27.3345 C   0  0  0  0  0  0  0  0  0  0  0  0
   -8.9508    0.0837   26.7583 C   0  0  0  0  0  0  0  0  0  0  0  0
   -9.7828    1.0373   26.2151 C   0  0  0  0  0  0  0  0  0  0  0  0
   -9.4120    2.3506   26.2469 C   0  0  0  0  0  0  0  0  0  0  0  0
   -7.4451    6.1147   28.0906 C   0  0  0  0  0  0  0  0  0  0  0  0
   -8.0883    6.8252   27.0706 C   0  0  0  0  0  0  0  0  0  0  0  0
  1  4  1  0
  4  9  2  3
  9 10  1  0
  1  2  1  0
  2  3  2  0
  3  5  1  0
  5  6  2  0
  6  7  1  0
  7  8  2  0
  8  2  1  0
M  END
$$$$
