No_237-complexes_sdf/6BKW-FPZ/2024-09-17-14-21-01/
     RDKit          3D

  8  7  0  0  0  0  0  0  0  0999 V2000
   -7.2496    3.8871   27.4508 C   0  0  0  0  0  0  0  0  0  0  0  0
   -7.6161    2.7143   27.1523 C   0  0  0  0  0  0  0  0  0  0  0  0
   -8.6212    2.2239   26.4074 C   0  0  0  0  0  0  0  0  0  0  0  0
   -8.2540    4.9237   27.1711 C   0  0  0  0  0  0  0  0  0  0  0  0
   -8.0796    6.2873   27.4779 C   0  0  0  0  0  0  0  0  0  0  0  0
   -9.5932    3.2602   26.1007 C   0  0  0  0  0  0  0  0  0  0  0  0
   -9.3512    4.5597   26.4138 C   0  0  0  0  0  0  0  0  0  0  0  0
  -10.1809    5.4791   26.0379 F   0  0  0  0  0  0  0  0  0  0  0  0
  1  2  1  0
  2  3  2  3
  1  4  3  0
  4  5  1  0
  3  6  1  0
  6  7  2  3
  7  8  1  0
M  END
$$$$
