No_2887-complexes_sdf/6BKW-FPZ/2024-09-17-14-21-01/
     RDKit          3D

 26 28  0  0  0  0  0  0  0  0999 V2000
   -7.9040    3.9820   27.1177 C   0  0  0  0  0  0  0  0  0  0  0  0
   -8.2057    2.8231   26.8733 C   0  0  0  0  0  0  0  0  0  0  0  0
   -7.4766    1.7477   27.4593 C   0  0  0  0  0  0  0  0  0  0  0  0
   -8.7468    5.1251   26.6967 C   0  0  0  0  0  0  0  0  0  0  0  0
   -9.7234    4.8589   25.8202 C   0  0  0  0  0  0  0  0  0  0  0  0
   -9.9711    3.5858   25.4266 C   0  0  0  0  0  0  0  0  0  0  0  0
   -9.2266    2.4957   25.9600 C   0  0  0  0  0  0  0  0  0  0  0  0
   -6.6635    0.9000   26.7532 C   0  0  0  0  0  0  0  0  0  0  0  0
   -5.7321    0.1432   27.5393 C   0  0  0  0  0  0  0  0  0  0  0  0
   -4.7031    0.8881   28.1143 C   0  0  0  0  0  0  0  0  0  0  0  0
   -3.9343    0.3401   29.2266 C   0  0  0  0  0  0  0  0  0  0  0  0
   -3.9864   -0.9890   29.5499 C   0  0  0  0  0  0  0  0  0  0  0  0
   -4.9891   -1.7426   28.8219 C   0  0  0  0  0  0  0  0  0  0  0  0
   -5.8539   -1.1411   27.9301 C   0  0  0  0  0  0  0  0  0  0  0  0
   -8.4238    6.5270   27.0911 C   0  0  0  0  0  0  0  0  0  0  0  0
   -7.9647    7.5962   26.9598 N   0  0  0  0  0  0  0  0  0  0  0  0
   -3.0939   -1.5380   30.5120 C   0  0  0  0  0  0  0  0  0  0  0  0
   -3.5755   -2.2616   31.5782 C   0  0  0  0  0  0  0  0  0  0  0  0
   -2.7656   -2.6138   32.5190 C   0  0  0  0  0  0  0  0  0  0  0  0
   -1.3626   -2.3302   32.5298 C   0  0  0  0  0  0  0  0  0  0  0  0
   -0.8871   -1.6479   31.4231 C   0  0  0  0  0  0  0  0  0  0  0  0
   -1.7300   -1.1219   30.4658 C   0  0  0  0  0  0  0  0  0  0  0  0
   -6.9322   -1.9465   27.3792 C   0  0  0  0  0  0  0  0  0  0  0  0
   -7.5532   -2.5084   28.2089 F   0  0  0  0  0  0  0  0  0  0  0  0
   -7.7875   -1.0725   26.7403 F   0  0  0  0  0  0  0  0  0  0  0  0
   -6.4483   -2.6492   26.4100 F   0  0  0  0  0  0  0  0  0  0  0  0
  2  3  1  0
  3  8  1  0
  8  9  1  0
  4 15  1  0
 15 16  3  0
 12 17  1  0
 14 23  1  0
 23 24  1  0
 23 25  1  0
 23 26  1  0
 17 18  2  0
 18 19  1  0
 19 20  2  0
 20 21  1  0
 21 22  2  0
 22 17  1  0
  1  2  2  0
  2  7  1  0
  7  6  2  0
  6  5  1  0
  5  4  2  0
  4  1  1  0
  9 10  2  0
 10 11  1  0
 11 12  2  0
 12 13  1  0
 13 14  2  0
 14  9  1  0
M  END
$$$$
