No_236-complexes_sdf/6BKW-FPZ/2024-09-17-14-21-01/
     RDKit          3D

 20 23  0  0  0  0  0  0  0  0999 V2000
   -7.9040    3.9820   27.1177 C   0  0  0  0  0  0  0  0  0  0  0  0
   -7.8663    4.8694   27.9238 C   0  0  0  0  0  0  0  0  0  0  0  0
   -9.0501    3.8017   26.2617 C   0  0  0  0  0  0  0  0  0  0  0  0
  -10.0189    4.7608   26.3707 C   0  0  0  0  0  0  0  0  0  0  0  0
   -8.6973    5.9722   27.8968 C   0  0  0  0  0  0  0  0  0  0  0  0
   -9.8216    5.8946   27.1241 C   0  0  0  0  0  0  0  0  0  0  0  0
   -9.3622    2.6765   25.4475 C   0  0  0  0  0  0  0  0  0  0  0  0
   -8.7910    1.4486   25.7624 C   0  0  0  0  0  0  0  0  0  0  0  0
   -8.7681    0.4117   24.8658 C   0  0  0  0  0  0  0  0  0  0  0  0
  -10.0004    2.8075   24.2475 C   0  0  0  0  0  0  0  0  0  0  0  0
  -10.0770    1.7544   23.3481 C   0  0  0  0  0  0  0  0  0  0  0  0
   -8.2000   -0.8244   25.2496 C   0  0  0  0  0  0  0  0  0  0  0  0
   -9.4374    0.5841   23.6604 C   0  0  0  0  0  0  0  0  0  0  0  0
   -7.9603   -1.2562   26.1749 C   0  0  0  0  0  0  0  0  0  0  0  0
   -7.3843   -2.5139   26.6020 C   0  0  0  0  0  0  0  0  0  0  0  0
   -7.0444   -2.8810   27.9221 C   0  0  0  0  0  0  0  0  0  0  0  0
   -7.2621   -1.9579   28.9846 C   0  0  0  0  0  0  0  0  0  0  0  0
   -7.8091   -0.7044   28.6497 C   0  0  0  0  0  0  0  0  0  0  0  0
   -8.0796   -0.3485   27.4848 C   0  0  0  0  0  0  0  0  0  0  0  0
   -8.5450    1.0108   27.1247 N   0  0  0  0  0  0  0  0  0  0  0  0
  3  7  1  0
  9 12  1  0
 12 14  2  0
 19 20  2  0
 20  8  1  0
 14 15  1  0
 15 16  2  0
 16 17  1  0
 17 18  2  0
 18 19  1  0
 19 14  1  0
  1  2  2  0
  2  5  1  0
  5  6  2  0
  6  4  1  0
  4  3  2  0
  3  1  1  0
  7  8  2  0
  8  9  1  0
  9 13  2  0
 13 11  1  0
 11 10  2  0
 10  7  1  0
M  END
$$$$
