No_218-complexes_sdf/6BKW-FPZ/2024-09-17-14-21-01/
     RDKit          3D

 40 45  0  0  0  0  0  0  0  0999 V2000
   -7.9040    3.9820   27.1177 C   0  0  0  0  0  0  0  0  0  0  0  0
   -7.8663    4.8694   27.9238 C   0  0  0  0  0  0  0  0  0  0  0  0
   -9.0491    3.8523   26.2542 C   0  0  0  0  0  0  0  0  0  0  0  0
   -8.7661    5.9491   27.9690 C   0  0  0  0  0  0  0  0  0  0  0  0
   -9.1715    2.7136   25.4037 C   0  0  0  0  0  0  0  0  0  0  0  0
   -9.8832    5.8611   27.1405 C   0  0  0  0  0  0  0  0  0  0  0  0
  -10.0016    4.7998   26.3324 C   0  0  0  0  0  0  0  0  0  0  0  0
  -10.0469    2.7614   24.3077 C   0  0  0  0  0  0  0  0  0  0  0  0
  -10.9035    3.9223   24.2366 C   0  0  0  0  0  0  0  0  0  0  0  0
  -10.9349    4.8031   25.2088 C   0  0  0  0  0  0  0  0  0  0  0  0
  -11.8332    3.8451   23.2790 F   0  0  0  0  0  0  0  0  0  0  0  0
   -6.9579    2.9771   27.1800 O   0  0  0  0  0  0  0  0  0  0  0  0
   -7.2633    1.6595   27.6374 C   0  0  0  0  0  0  0  0  0  0  0  0
   -6.0558    0.8864   27.7739 C   0  0  0  0  0  0  0  0  0  0  0  0
   -6.0688   -0.4530   28.1290 C   0  0  0  0  0  0  0  0  0  0  0  0
   -4.9361   -1.1111   28.5175 C   0  0  0  0  0  0  0  0  0  0  0  0
   -3.6771   -0.4412   28.4212 C   0  0  0  0  0  0  0  0  0  0  0  0
   -3.6531    0.8900   28.0080 C   0  0  0  0  0  0  0  0  0  0  0  0
   -4.7750    1.5600   27.7929 C   0  0  0  0  0  0  0  0  0  0  0  0
   -2.4256   -1.1285   28.7932 C   0  0  0  0  0  0  0  0  0  0  0  0
   -1.5001   -1.0446   28.2395 C   0  0  0  0  0  0  0  0  0  0  0  0
   -0.1731   -1.6780   28.6040 C   0  0  0  0  0  0  0  0  0  0  0  0
   -0.1132   -2.3742   29.7666 C   0  0  0  0  0  0  0  0  0  0  0  0
   -2.4386   -1.8149   30.1120 C   0  0  0  0  0  0  0  0  0  0  0  0
   -1.2764   -2.4000   30.5739 C   0  0  0  0  0  0  0  0  0  0  0  0
   -8.3562    1.1912   27.7196 O   0  0  0  0  0  0  0  0  0  0  0  0
   -1.2400   -3.1049   31.8784 C   0  0  0  0  0  0  0  0  0  0  0  0
   -2.3203   -3.1230   32.5367 C   0  0  0  0  0  0  0  0  0  0  0  0
   -3.5350   -2.4686   32.0801 C   0  0  0  0  0  0  0  0  0  0  0  0
   -3.5707   -1.8079   30.9684 C   0  0  0  0  0  0  0  0  0  0  0  0
   -4.7756   -2.4754   32.9792 C   0  0  0  0  0  0  0  0  0  0  0  0
   -5.9827   -2.2386   32.4351 C   0  0  0  0  0  0  0  0  0  0  0  0
   -7.0278   -1.9060   33.2756 C   0  0  0  0  0  0  0  0  0  0  0  0
   -6.9159   -2.0761   34.6149 C   0  0  0  0  0  0  0  0  0  0  0  0
   -5.7035   -2.3442   35.2050 C   0  0  0  0  0  0  0  0  0  0  0  0
   -4.5877   -2.4368   34.4093 C   0  0  0  0  0  0  0  0  0  0  0  0
   -5.5928   -2.2914   36.6833 C   0  0  0  0  0  0  0  0  0  0  0  0
   -6.5152   -1.8379   37.4319 C   0  0  0  0  0  0  0  0  0  0  0  0
   -6.4662   -1.3725   38.3329 C   0  0  0  0  0  0  0  0  0  0  0  0
   -7.5686   -0.5710   39.1278 C   0  0  0  0  0  0  0  0  0  0  0  0
  9 11  1  0
  1 12  1  0
 12 13  1  0
 13 14  1  0
 17 20  1  0
 13 26  2  0
 29 31  1  0
 35 37  1  0
 37 38  1  0
 38 39  2  3
 39 40  1  0
 25 27  2  0
 27 28  1  0
 28 29  2  0
 29 30  1  0
 30 24  2  0
  3  5  2  0
  5  8  1  0
  8  9  2  0
  9 10  1  0
 10  7  2  0
 31 32  2  0
 32 33  1  0
 33 34  2  0
 34 35  1  0
 35 36  2  0
 36 31  1  0
 14 15  2  0
 15 16  1  0
 16 17  2  0
 17 18  1  0
 18 19  2  0
 19 14  1  0
  1  2  2  0
  2  4  1  0
  4  6  2  0
  6  7  1  0
  7  3  1  0
  3  1  1  0
 20 21  2  0
 21 22  1  0
 22 23  2  0
 23 25  1  0
 25 24  1  0
 24 20  1  0
M  END
$$$$
