No_2805-complexes_sdf/6BKW-FPZ/2024-09-17-14-21-01/
     RDKit          3D

 40 45  0  0  0  0  0  0  0  0999 V2000
   -7.9040    3.9820   27.1177 C   0  0  0  0  0  0  0  0  0  0  0  0
   -9.0711    4.3164   27.0630 C   0  0  0  0  0  0  0  0  0  0  0  0
   -9.5182    5.5541   27.5777 C   0  0  0  0  0  0  0  0  0  0  0  0
   -7.4468    2.6843   26.6499 C   0  0  0  0  0  0  0  0  0  0  0  0
   -8.3856    1.7878   26.2216 C   0  0  0  0  0  0  0  0  0  0  0  0
   -9.6812    2.2328   26.0889 C   0  0  0  0  0  0  0  0  0  0  0  0
  -10.0147    3.4312   26.5259 C   0  0  0  0  0  0  0  0  0  0  0  0
   -7.7098    0.5124   25.8113 C   0  0  1  0  0  0  0  0  0  0  0  0
   -8.1524   -0.0152   24.7857 N   0  0  0  0  0  0  0  0  0  0  0  0
   -7.4094   -0.8627   24.0231 C   0  0  1  0  0  0  0  0  0  0  0  0
   -6.4303   -1.3677   24.5561 C   0  0  0  0  0  0  0  0  0  0  0  0
   -5.9110   -0.9357   25.8238 C   0  0  2  0  0  0  0  0  0  0  0  0
   -6.5234    0.1121   26.4255 C   0  0  0  0  0  0  0  0  0  0  0  0
  -10.7150    5.6850   28.0995 F   0  0  0  0  0  0  0  0  0  0  0  0
   -9.3869    6.6801   26.7128 F   0  0  0  0  0  0  0  0  0  0  0  0
   -8.6368    6.0442   28.6179 F   0  0  0  0  0  0  0  0  0  0  0  0
   -9.3553    0.4789   24.0136 C   0  0  0  0  0  0  0  0  0  0  0  0
   -9.2018    1.2559   22.9663 C   0  0  0  0  0  0  0  0  0  0  0  0
  -10.2263    1.8099   22.2530 C   0  0  0  0  0  0  0  0  0  0  0  0
  -11.5134    1.5403   22.6253 C   0  0  0  0  0  0  0  0  0  0  0  0
  -10.6064    0.1579   24.4753 C   0  0  0  0  0  0  0  0  0  0  0  0
  -11.7189    0.6718   23.7453 C   0  0  0  0  0  0  0  0  0  0  0  0
   -7.8697   -1.3272   22.8400 N   0  0  0  0  0  0  0  0  0  0  0  0
   -8.8873   -1.6186   22.3776 C   0  0  0  0  0  0  0  0  0  0  0  0
   -8.9666   -2.1228   21.0385 C   0  0  0  0  0  0  0  0  0  0  0  0
  -10.1386   -2.2694   20.3146 C   0  0  0  0  0  0  0  0  0  0  0  0
  -10.1149   -2.6372   18.9492 C   0  0  0  0  0  0  0  0  0  0  0  0
   -8.8925   -2.8539   18.3183 C   0  0  0  0  0  0  0  0  0  0  0  0
   -7.7159   -2.6816   19.0135 C   0  0  0  0  0  0  0  0  0  0  0  0
   -7.7249   -2.2891   20.3315 C   0  0  0  0  0  0  0  0  0  0  0  0
   -6.6788   -1.5269   21.9070 C   0  0  0  0  0  0  0  0  0  0  0  0
   -6.5288   -1.9430   20.9063 C   0  0  0  0  0  0  0  0  0  0  0  0
  -11.3384   -2.0808   20.8512 F   0  0  0  0  0  0  0  0  0  0  0  0
   -4.6779   -1.4920   26.4665 C   0  0  0  0  0  0  0  0  0  0  0  0
   -3.9092   -0.6731   27.0215 C   0  0  0  0  0  0  0  0  0  0  0  0
   -2.7969   -1.1451   27.8796 C   0  0  0  0  0  0  0  0  0  0  0  0
   -2.4234   -2.3150   27.8978 C   0  0  0  0  0  0  0  0  0  0  0  0
   -4.4513   -2.8808   26.5012 C   0  0  0  0  0  0  0  0  0  0  0  0
   -3.2592   -3.3290   27.2246 C   0  0  0  0  0  0  0  0  0  0  0  0
   -2.0897   -0.1357   28.4779 F   0  0  0  0  0  0  0  0  0  0  0  0
  2  3  1  0
  8  5  1  6
  8  9  1  0
  9 10  1  0
 10 11  1  0
  8 13  1  0
 12 13  1  0
  3 14  1  0
  3 15  1  0
  3 16  1  0
  9 17  1  0
 10 23  1  1
 23 24  1  0
 23 31  1  0
 30 32  1  0
 26 33  1  0
 12 34  1  6
 36 40  1  0
 24 25  1  0
 32 31  1  0
 12 11  1  0
 17 18  2  0
 18 19  1  0
 19 20  2  0
 20 22  1  0
 22 21  2  0
 21 17  1  0
 25 26  2  0
 26 27  1  0
 27 28  2  0
 28 29  1  0
 29 30  2  0
 30 25  1  0
  1  2  2  0
  2  7  1  0
  7  6  2  0
  6  5  1  0
  5  4  2  0
  4  1  1  0
 34 35  2  0
 35 36  1  0
 36 37  2  0
 37 39  1  0
 39 38  2  0
 38 34  1  0
M  END
$$$$
