No_2948-complexes_sdf/6BKW-FPZ/2024-09-17-14-21-01/
     RDKit          3D

 39 44  0  0  0  0  0  0  0  0999 V2000
   -7.7129    4.2099   27.0854 C   0  0  0  0  0  0  0  0  0  0  0  0
   -8.2112    3.0637   26.9225 C   0  0  0  0  0  0  0  0  0  0  0  0
   -7.5138    1.9223   27.4249 C   0  0  0  0  0  0  0  0  0  0  0  0
   -8.5309    5.4147   26.8151 C   0  0  0  0  0  0  0  0  0  0  0  0
   -9.6817    5.2393   26.1100 C   0  0  0  0  0  0  0  0  0  0  0  0
  -10.1032    3.9957   25.8534 C   0  0  0  0  0  0  0  0  0  0  0  0
   -9.4035    2.8430   26.2573 C   0  0  0  0  0  0  0  0  0  0  0  0
   -6.1481    1.9922   27.8210 C   0  0  0  0  0  0  0  0  0  0  0  0
   -5.4897    0.8126   28.2236 C   0  0  0  0  0  0  0  0  0  0  0  0
   -6.0879   -0.4018   28.1493 C   0  0  0  0  0  0  0  0  0  0  0  0
   -7.9650    0.5820   27.3461 C   0  0  0  0  0  0  0  0  0  0  0  0
   -7.3675   -0.4821   27.7671 C   0  0  0  0  0  0  0  0  0  0  0  0
   -7.9807    6.7610   27.0929 C   0  0  0  0  0  0  0  0  0  0  0  0
   -8.6527    7.8511   26.7219 N   0  0  0  0  0  0  0  0  0  0  0  0
   -6.9085    6.8404   27.7825 O   0  0  0  0  0  0  0  0  0  0  0  0
   -4.0463    1.2002   28.6461 C   0  0  0  0  0  0  0  0  0  0  0  0
   -3.8876    0.9389   29.9483 F   0  0  0  0  0  0  0  0  0  0  0  0
   -3.6182    2.3293   28.3943 F   0  0  0  0  0  0  0  0  0  0  0  0
   -3.1719    0.2600   28.1838 F   0  0  0  0  0  0  0  0  0  0  0  0
  -11.2458    3.8551   25.1579 F   0  0  0  0  0  0  0  0  0  0  0  0
   -7.9669   -1.8067   27.7371 C   0  0  0  0  0  0  0  0  0  0  0  0
   -9.1936   -1.9106   27.5983 C   0  0  0  0  0  0  0  0  0  0  0  0
   -9.9310   -0.7253   27.1690 C   0  0  0  0  0  0  0  0  0  0  0  0
   -9.3961    0.4397   27.1196 C   0  0  0  0  0  0  0  0  0  0  0  0
  -10.1721    1.6504   26.5521 C   0  0  0  0  0  0  0  0  0  0  0  0
  -11.2901   -0.8667   26.9508 O   0  0  0  0  0  0  0  0  0  0  0  0
  -11.9739   -1.5845   27.6914 C   0  0  0  0  0  0  0  0  0  0  0  0
  -12.2325   -1.1327   28.9260 C   0  0  0  0  0  0  0  0  0  0  0  0
  -12.4723   -1.9326   29.9564 C   0  0  0  0  0  0  0  0  0  0  0  0
  -12.9735   -1.4619   31.2052 C   0  0  0  0  0  0  0  0  0  0  0  0
  -13.6851   -0.2314   31.2466 C   0  0  0  0  0  0  0  0  0  0  0  0
  -13.5351    0.6434   30.1535 C   0  0  0  0  0  0  0  0  0  0  0  0
  -11.9295    0.2302   29.5235 C   0  0  0  0  0  0  0  0  0  0  0  0
  -14.5037    0.7244   29.1440 C   0  0  0  0  0  0  0  0  0  0  0  0
  -15.4269    1.6202   29.3925 C   0  0  0  0  0  0  0  0  0  0  0  0
  -16.4812    1.8304   28.4157 C   0  0  0  0  0  0  0  0  0  0  0  0
  -16.3819    1.1124   27.2384 C   0  0  0  0  0  0  0  0  0  0  0  0
  -15.3417    0.2520   26.9733 C   0  0  0  0  0  0  0  0  0  0  0  0
  -14.3879    0.1178   27.8992 C   0  0  0  0  0  0  0  0  0  0  0  0
  2  3  1  0
  4 13  1  0
 13 14  1  0
 13 15  2  0
  9 16  1  0
 16 17  1  0
 16 18  1  0
 16 19  1  0
  6 20  1  0
  7 25  1  0
 24 25  1  0
 23 26  1  0
 26 27  1  0
 27 28  1  0
 32 34  1  0
  1  2  2  0
  2  7  1  0
  7  6  2  0
  6  5  1  0
  5  4  2  0
  4  1  1  0
 12 21  2  0
 21 22  1  0
 22 23  2  0
 23 24  1  0
 24 11  2  0
  3  8  2  0
  8  9  1  0
  9 10  2  0
 10 12  1  0
 12 11  1  0
 11  3  1  0
 34 35  2  0
 35 36  1  0
 36 37  2  0
 37 38  1  0
 38 39  2  0
 39 34  1  0
 28 29  2  0
 29 30  1  0
 30 31  2  0
 31 32  1  0
 32 33  2  0
 33 28  1  0
M  END
$$$$
