No_2441-complexes_sdf/6BKW-FPZ/2024-09-17-14-21-01/
     RDKit          3D

 31 35  0  0  0  0  0  0  0  0999 V2000
   -7.2496    3.8871   27.4508 C   0  0  0  0  0  0  0  0  0  0  0  0
   -7.6161    2.7143   27.1523 C   0  0  0  0  0  0  0  0  0  0  0  0
   -8.8827    2.2318   27.1220 C   0  0  0  0  0  0  0  0  0  0  0  0
   -8.2837    4.9116   27.6108 C   0  0  0  0  0  0  0  0  0  0  0  0
   -9.6088    4.5175   27.5560 C   0  0  0  0  0  0  0  0  0  0  0  0
   -9.9243    3.2149   27.3938 C   0  0  0  0  0  0  0  0  0  0  0  0
   -7.8973    6.1858   27.9018 O   0  0  0  0  0  0  0  0  0  0  0  0
   -9.2735    0.8536   26.9291 C   0  0  0  0  0  0  0  0  0  0  0  0
   -8.5543   -0.0621   26.9998 C   0  0  0  0  0  0  0  0  0  0  0  0
   -8.9395   -1.4727   26.8422 C   0  0  0  0  0  0  0  0  0  0  0  0
  -10.2781   -1.6639   26.5369 C   0  0  0  0  0  0  0  0  0  0  0  0
  -10.6411    0.3433   26.6695 C   0  0  0  0  0  0  0  0  0  0  0  0
  -11.0978   -0.7741   26.5493 C   0  0  0  0  0  0  0  0  0  0  0  0
   -8.4844    7.1564   27.0789 C   0  0  0  0  0  0  0  0  0  0  0  0
  -10.6581   -3.1711   26.3687 C   0  0  0  0  0  0  0  0  0  0  0  0
  -10.0211   -4.1162   26.8035 C   0  0  0  0  0  0  0  0  0  0  0  0
   -8.5956   -3.8026   27.1635 C   0  0  0  0  0  0  0  0  0  0  0  0
   -8.0437   -2.5752   27.1964 C   0  0  0  0  0  0  0  0  0  0  0  0
   -7.7564   -4.8998   27.4506 O   0  0  0  0  0  0  0  0  0  0  0  0
   -6.9785   -5.3400   26.7198 C   0  0  0  0  0  0  0  0  0  0  0  0
   -6.0810   -6.1127   27.0765 C   0  0  0  0  0  0  0  0  0  0  0  0
   -6.9166   -5.0107   25.2735 C   0  0  0  0  0  0  0  0  0  0  0  0
   -5.0770   -6.7440   26.2590 C   0  0  0  0  0  0  0  0  0  0  0  0
   -5.9872   -5.5142   24.4187 C   0  0  0  0  0  0  0  0  0  0  0  0
   -5.0547   -6.3710   24.9010 C   0  0  0  0  0  0  0  0  0  0  0  0
   -4.0617   -6.9303   23.9832 C   0  0  0  0  0  0  0  0  0  0  0  0
   -2.8235   -6.7909   24.3856 C   0  0  0  0  0  0  0  0  0  0  0  0
   -1.8543   -6.2095   23.5391 C   0  0  0  0  0  0  0  0  0  0  0  0
   -2.0917   -5.6165   22.3874 C   0  0  0  0  0  0  0  0  0  0  0  0
   -3.4456   -5.7996   21.9348 C   0  0  0  0  0  0  0  0  0  0  0  0
   -4.3877   -5.8694   22.7509 C   0  0  0  0  0  0  0  0  0  0  0  0
  4  7  1  0
  3  8  1  0
  7 14  1  0
 17 19  1  0
 19 20  1  0
 25 26  1  0
 11 15  2  0
 15 16  1  0
 16 17  2  0
 17 18  1  0
 18 10  2  0
  1  2  2  0
  2  3  1  0
  3  6  2  0
  6  5  1  0
  5  4  2  0
  4  1  1  0
 26 27  2  0
 27 28  1  0
 28 29  2  0
 29 30  1  0
 30 31  2  0
 31 26  1  0
 20 21  2  0
 21 23  1  0
 23 25  2  0
 25 24  1  0
 24 22  2  0
 22 20  1  0
  8  9  2  0
  9 10  1  0
 10 11  1  0
 11 13  1  0
 13 12  2  0
 12  8  1  0
M  END
$$$$
