No_2437-complexes_sdf/6BKW-FPZ/2024-09-17-14-21-01/
     RDKit          3D

 40 44  0  0  0  0  0  0  0  0999 V2000
   -7.2496    3.8871   27.4508 C   0  0  0  0  0  0  0  0  0  0  0  0
   -7.6161    2.7143   27.1523 C   0  0  0  0  0  0  0  0  0  0  0  0
   -8.6212    2.2239   26.4073 C   0  0  0  0  0  0  0  0  0  0  0  0
   -8.2540    4.9237   27.1711 C   0  0  0  0  0  0  0  0  0  0  0  0
   -9.3709    4.6018   26.4511 C   0  0  0  0  0  0  0  0  0  0  0  0
   -9.5922    3.3274   26.0949 C   0  0  0  0  0  0  0  0  0  0  0  0
   -7.9344    6.2319   27.5330 N   0  0  0  0  0  0  0  0  0  0  0  0
   -8.8679    0.9160   26.0568 C   0  0  0  0  0  0  0  0  0  0  0  0
   -9.1001    0.5837   24.9197 C   0  0  0  0  0  0  0  0  0  0  0  0
   -9.2501    1.6150   23.8618 C   0  0  0  0  0  0  0  0  0  0  0  0
   -9.5780    1.3392   22.5299 C   0  0  0  0  0  0  0  0  0  0  0  0
   -9.4999   -0.0079   22.1360 C   0  0  0  0  0  0  0  0  0  0  0  0
   -9.2406   -1.0422   23.0141 C   0  0  0  0  0  0  0  0  0  0  0  0
   -9.0385   -0.7274   24.3144 C   0  0  0  0  0  0  0  0  0  0  0  0
   -8.7431    7.3197   27.1618 C   0  0  0  0  0  0  0  0  0  0  0  0
   -8.7446    0.2259   27.0002 C   0  0  0  0  0  0  0  0  0  0  0  0
   -8.3189   -0.3700   27.7822 C   0  0  0  0  0  0  0  0  0  0  0  0
   -7.8893   -1.4268   28.7177 C   0  0  0  0  0  0  0  0  0  0  0  0
   -8.6571   -2.2381   29.4556 C   0  0  0  0  0  0  0  0  0  0  0  0
   -8.1063   -3.0764   30.4641 C   0  0  0  0  0  0  0  0  0  0  0  0
   -6.7458   -2.9868   30.7051 C   0  0  0  0  0  0  0  0  0  0  0  0
   -5.9350   -2.1267   29.9960 C   0  0  0  0  0  0  0  0  0  0  0  0
   -6.4636   -1.3045   29.0740 C   0  0  0  0  0  0  0  0  0  0  0  0
   -4.4832   -2.0126   30.3450 C   0  0  0  0  0  0  0  0  0  0  0  0
   -3.7674   -1.3711   29.6780 C   0  0  0  0  0  0  0  0  0  0  0  0
   -4.3080   -0.4369   28.6054 C   0  0  0  0  0  0  0  0  0  0  0  0
   -5.6045   -0.4507   28.2955 C   0  0  0  0  0  0  0  0  0  0  0  0
   -3.3615    0.4489   27.8366 C   0  0  0  0  0  0  0  0  0  0  0  0
   -3.0619    0.3865   26.7056 N   0  0  0  0  0  0  0  0  0  0  0  0
   -3.1107    1.6600   28.4584 O   0  0  0  0  0  0  0  0  0  0  0  0
   -9.8345    2.3831   21.5495 C   0  0  0  0  0  0  0  0  0  0  0  0
  -11.0324    3.0998   21.7394 C   0  0  0  0  0  0  0  0  0  0  0  0
  -11.2150    4.2637   21.0950 C   0  0  0  0  0  0  0  0  0  0  0  0
  -12.2713    5.1431   21.4844 C   0  0  0  0  0  0  0  0  0  0  0  0
  -13.1333    4.7416   22.5896 C   0  0  0  0  0  0  0  0  0  0  0  0
  -12.8698    3.5957   23.2467 C   0  0  0  0  0  0  0  0  0  0  0  0
  -11.8183    2.7957   22.9365 C   0  0  0  0  0  0  0  0  0  0  0  0
  -10.0958   -2.3051   29.0995 C   0  0  0  0  0  0  0  0  0  0  0  0
  -11.0063   -2.3647   29.9712 C   0  0  0  0  0  0  0  0  0  0  0  0
  -12.3968   -2.2018   29.6735 C   0  0  0  0  0  0  0  0  0  0  0  0
  4  7  1  0
  3  8  1  0
  7 15  1  0
  8 16  1  0
 16 17  3  0
 17 18  1  0
 26 28  1  0
 28 29  1  0
 28 30  2  0
 11 31  1  0
 31 32  1  0
 19 38  1  0
 38 39  1  0
 39 40  2  0
  8  9  1  0
 18 19  2  0
 19 20  1  0
 20 21  2  0
 21 22  1  0
 23 18  1  0
 32 33  2  0
 33 34  1  0
 34 35  2  0
 35 36  1  0
 36 37  2  0
 37 32  1  0
  1  2  2  0
  2  3  1  0
  3  6  2  0
  6  5  1  0
  5  4  2  0
  4  1  1  0
  9 10  2  0
 10 11  1  0
 11 12  2  0
 12 13  1  0
 13 14  2  0
 14  9  1  0
 22 23  2  0
 23 27  1  0
 27 26  2  0
 26 25  1  0
 25 24  2  0
 24 22  1  0
M  END
$$$$
