No_2442-complexes_sdf/6BKW-FPZ/2024-09-17-14-21-01/
     RDKit          3D

 36 39  0  0  0  0  0  0  0  0999 V2000
   -7.7129    4.2099   27.0854 C   0  0  0  0  0  0  0  0  0  0  0  0
   -8.2112    3.0637   26.9225 C   0  0  0  0  0  0  0  0  0  0  0  0
   -9.4446    2.8304   26.1868 C   0  0  0  0  0  0  0  0  0  0  0  0
   -8.4697    5.3956   26.7238 C   0  0  0  0  0  0  0  0  0  0  0  0
   -9.6172    5.2111   25.9513 C   0  0  0  0  0  0  0  0  0  0  0  0
  -10.0424    3.9782   25.6873 C   0  0  0  0  0  0  0  0  0  0  0  0
   -7.5056    1.8167   27.4088 C   0  0  0  0  0  0  0  0  0  0  0  0
   -8.0423    0.5366   27.2920 C   0  0  0  0  0  0  0  0  0  0  0  0
   -7.3570   -0.5133   27.7568 C   0  0  0  0  0  0  0  0  0  0  0  0
   -6.0645   -0.3845   28.2643 C   0  0  0  0  0  0  0  0  0  0  0  0
   -5.4437    0.8911   28.2373 C   0  0  0  0  0  0  0  0  0  0  0  0
   -6.1109    1.9469   27.8006 C   0  0  0  0  0  0  0  0  0  0  0  0
   -8.1830    6.7688   27.0546 C   0  0  0  0  0  0  0  0  0  0  0  0
   -7.5359    6.9785   28.1214 O   0  0  0  0  0  0  0  0  0  0  0  0
   -8.6789    7.8410   26.4842 O   0  0  0  0  0  0  0  0  0  0  0  0
   -4.2006    1.1909   28.5994 F   0  0  0  0  0  0  0  0  0  0  0  0
  -11.2306    3.8025   24.8053 C   0  0  0  0  0  0  0  0  0  0  0  0
  -11.1754    2.9364   23.8015 C   0  0  0  0  0  0  0  0  0  0  0  0
  -12.2449    2.8006   22.8932 C   0  0  0  0  0  0  0  0  0  0  0  0
  -13.3144    3.7040   22.9832 C   0  0  0  0  0  0  0  0  0  0  0  0
  -13.3618    4.6240   24.0337 C   0  0  0  0  0  0  0  0  0  0  0  0
  -12.3376    4.7431   24.9441 C   0  0  0  0  0  0  0  0  0  0  0  0
   -7.9544   -1.8545   27.7979 C   0  0  0  0  0  0  0  0  0  0  0  0
   -9.2129   -1.9226   28.0736 C   0  0  0  0  0  0  0  0  0  0  0  0
   -9.8729   -3.1053   28.4244 C   0  0  0  0  0  0  0  0  0  0  0  0
   -9.1082   -4.2449   28.3666 C   0  0  0  0  0  0  0  0  0  0  0  0
   -7.2130   -3.0321   27.9934 C   0  0  0  0  0  0  0  0  0  0  0  0
   -7.8025   -4.2046   28.2070 C   0  0  0  0  0  0  0  0  0  0  0  0
   -9.8693   -5.5406   28.6359 C   0  0  0  0  0  0  0  0  0  0  0  0
  -10.9130   -5.5932   28.4767 F   0  0  0  0  0  0  0  0  0  0  0  0
   -9.4952   -5.8758   29.9516 F   0  0  0  0  0  0  0  0  0  0  0  0
   -9.2017   -6.4505   27.8885 F   0  0  0  0  0  0  0  0  0  0  0  0
  -14.8891    5.7507   24.1946 Br  0  0  0  0  0  0  0  0  0  0  0  0
  -12.2026    1.8741   21.8256 C   0  0  0  0  0  0  0  0  0  0  0  0
  -12.0607    2.1593   20.6529 C   0  0  0  0  0  0  0  0  0  0  0  0
  -11.9205    1.2145   19.5481 C   0  0  0  0  0  0  0  0  0  0  0  0
  2  7  1  0
  4 13  1  0
 13 14  2  0
 13 15  1  0
 11 16  1  0
  6 17  1  0
  9 23  1  0
 26 29  1  0
 29 30  1  0
 29 31  1  0
 29 32  1  0
 21 33  1  0
 19 34  1  0
 34 35  2  3
 35 36  1  0
 17 18  2  0
 18 19  1  0
 19 20  2  0
 20 21  1  0
 21 22  2  0
 22 17  1  0
  1  2  2  0
  2  3  1  0
  3  6  2  0
  6  5  1  0
  5  4  2  0
  4  1  1  0
 23 24  2  0
 24 25  1  0
 25 26  2  0
 26 28  1  0
 28 27  2  0
 27 23  1  0
  7  8  2  0
  8  9  1  0
  9 10  2  0
 10 11  1  0
 11 12  2  0
 12  7  1  0
M  END
$$$$
