No_2349-complexes_sdf/6BKW-FPZ/2024-09-17-14-21-01/
     RDKit          3D

 19 20  0  0  0  0  0  0  0  0999 V2000
   -7.7129    4.2099   27.0854 C   0  0  0  0  0  0  0  0  0  0  0  0
   -7.7814    5.1722   27.8972 C   0  0  0  0  0  0  0  0  0  0  0  0
   -8.8998    3.8713   26.3707 C   0  0  0  0  0  0  0  0  0  0  0  0
   -9.9938    4.6774   26.5446 C   0  0  0  0  0  0  0  0  0  0  0  0
   -8.7789    6.1536   27.9256 C   0  0  0  0  0  0  0  0  0  0  0  0
   -9.9428    5.8398   27.2296 C   0  0  0  0  0  0  0  0  0  0  0  0
   -8.9119    2.6447   25.5685 C   0  0  0  0  0  0  0  0  0  0  0  0
   -8.3051    1.4797   26.1124 C   0  0  0  0  0  0  0  0  0  0  0  0
   -7.8595    1.4792   27.3798 C   0  0  0  0  0  0  0  0  0  0  0  0
   -8.3162    0.3417   25.2331 C   0  0  0  0  0  0  0  0  0  0  0  0
   -7.2359    0.1755   27.7858 C   0  0  0  0  0  0  0  0  0  0  0  0
   -7.8656   -0.5416   25.6576 C   0  0  0  0  0  0  0  0  0  0  0  0
   -7.2498   -0.8384   26.9556 C   0  0  0  0  0  0  0  0  0  0  0  0
   -9.5918    2.6940   24.3536 C   0  0  0  0  0  0  0  0  0  0  0  0
  -10.3383    3.8195   23.9688 C   0  0  0  0  0  0  0  0  0  0  0  0
  -11.1299    3.8941   22.8227 C   0  0  0  0  0  0  0  0  0  0  0  0
  -11.7623    5.0918   22.5572 C   0  0  0  0  0  0  0  0  0  0  0  0
  -11.1607    2.9046   21.8630 C   0  0  0  0  0  0  0  0  0  0  0  0
  -10.6584    1.7062   22.0676 C   0  0  0  0  0  0  0  0  0  0  0  0
  3  7  1  0
  7  8  1  0
  7 14  1  0
 14 15  2  3
 15 16  1  0
 16 17  2  0
 16 18  1  0
 18 19  1  0
  8  9  2  0
  9 11  1  0
 11 13  2  0
 13 12  1  0
 12 10  2  0
 10  8  1  0
  1  2  2  0
  2  5  1  0
  5  6  2  0
  6  4  1  0
  4  3  2  0
  3  1  1  0
M  END
$$$$
