No_2212-complexes_sdf/6BKW-FPZ/2024-09-17-14-21-01/
     RDKit          3D

 14 15  0  0  0  0  0  0  0  0999 V2000
   -7.7129    4.2099   27.0854 C   0  0  0  0  0  0  0  0  0  0  0  0
   -7.7814    5.1722   27.8972 C   0  0  0  0  0  0  0  0  0  0  0  0
   -8.8998    3.8713   26.3707 C   0  0  0  0  0  0  0  0  0  0  0  0
   -8.9563    2.6796   25.5490 C   0  0  0  0  0  0  0  0  0  0  0  0
   -8.8131    6.1334   27.9344 C   0  0  0  0  0  0  0  0  0  0  0  0
   -9.9804    5.8121   27.1929 C   0  0  0  0  0  0  0  0  0  0  0  0
   -9.9861    4.6836   26.4532 C   0  0  0  0  0  0  0  0  0  0  0  0
   -8.3568    1.4858   26.0897 C   0  0  0  0  0  0  0  0  0  0  0  0
   -7.9145    1.4986   27.3503 C   0  0  0  0  0  0  0  0  0  0  0  0
   -8.3348    0.4213   25.1828 C   0  0  0  0  0  0  0  0  0  0  0  0
   -7.2962    0.1681   27.7629 C   0  0  0  0  0  0  0  0  0  0  0  0
   -7.7461   -0.8041   25.6241 C   0  0  0  0  0  0  0  0  0  0  0  0
   -7.2281   -0.8820   26.9457 C   0  0  0  0  0  0  0  0  0  0  0  0
   -9.6228    2.7176   24.5273 O   0  0  0  0  0  0  0  0  0  0  0  0
  3  4  1  0
  4  8  1  0
  4 14  2  0
  8  9  2  0
  9 11  1  0
 11 13  2  0
 13 12  1  0
 12 10  2  0
 10  8  1  0
  1  2  2  0
  2  5  1  0
  5  6  2  0
  6  7  1  0
  7  3  2  0
  3  1  1  0
M  END
$$$$
