No_2452-complexes_sdf/6BKW-FPZ/2024-09-17-14-21-01/
     RDKit          3D

 15 16  0  0  0  0  0  0  0  0999 V2000
   -7.7129    4.2099   27.0854 C   0  0  0  0  0  0  0  0  0  0  0  0
   -8.9134    4.4736   27.0998 C   0  0  0  0  0  0  0  0  0  0  0  0
   -9.8363    3.8127   27.2418 C   0  0  0  0  0  0  0  0  0  0  0  0
   -7.2995    2.8520   27.3808 C   0  0  0  0  0  0  0  0  0  0  0  0
   -8.3404    1.9507   27.4989 C   0  0  0  0  0  0  0  0  0  0  0  0
   -9.6166    2.3791   27.4719 C   0  0  0  0  0  0  0  0  0  0  0  0
   -9.1653    6.0330   26.9186 C   0  0  0  0  0  0  0  0  0  0  0  0
   -8.9572    6.8340   28.0170 C   0  0  0  0  0  0  0  0  0  0  0  0
   -8.0145    0.4938   27.6845 C   0  0  0  0  0  0  0  0  0  0  0  0
   -6.7048    0.0679   27.7032 C   0  0  0  0  0  0  0  0  0  0  0  0
   -6.3927   -1.2692   27.9266 C   0  0  0  0  0  0  0  0  0  0  0  0
   -7.4584   -2.1300   28.1301 C   0  0  0  0  0  0  0  0  0  0  0  0
   -8.8552   -0.6172   27.9158 C   0  0  0  0  0  0  0  0  0  0  0  0
   -8.6921   -1.7917   28.1915 C   0  0  0  0  0  0  0  0  0  0  0  0
   -8.2558    6.5531   25.7141 C   0  0  0  0  0  0  0  0  0  0  0  0
  2  7  1  0
  7  8  1  0
  5  9  1  0
  7 15  1  0
  1  2  2  0
  2  3  1  0
  3  6  2  0
  6  5  1  0
  5  4  2  0
  4  1  1  0
  9 10  2  0
 10 11  1  0
 11 12  2  0
 12 14  1  0
 14 13  2  0
 13  9  1  0
M  END
$$$$
