No_2537-complexes_sdf/6BKW-FPZ/2024-09-17-14-21-01/
     RDKit          3D

 28 31  0  0  0  0  0  0  0  0999 V2000
   -7.2496    3.8871   27.4508 C   0  0  0  0  0  0  0  0  0  0  0  0
   -7.9379    4.9063   27.8518 C   0  0  0  0  0  0  0  0  0  0  0  0
   -7.5112    6.1898   27.6280 C   0  0  0  0  0  0  0  0  0  0  0  0
   -9.3085    4.6933   28.2930 C   0  0  0  0  0  0  0  0  0  0  0  0
   -7.7804    2.5137   27.6845 C   0  0  0  0  0  0  0  0  0  0  0  0
   -9.1545    2.3397   27.7350 C   0  0  0  0  0  0  0  0  0  0  0  0
   -9.8867    3.4718   28.2310 C   0  0  0  0  0  0  0  0  0  0  0  0
   -6.9583    1.3805   27.1142 C   0  0  0  0  0  0  0  0  0  0  0  0
   -5.8365    1.0423   27.9907 C   0  0  0  0  0  0  0  0  0  0  0  0
   -5.0855   -0.1401   27.6949 C   0  0  0  0  0  0  0  0  0  0  0  0
   -5.5513   -0.9398   26.6568 C   0  0  0  0  0  0  0  0  0  0  0  0
   -7.3574    0.4108   26.2853 C   0  0  0  0  0  0  0  0  0  0  0  0
   -6.6792   -0.6669   25.9677 C   0  0  0  0  0  0  0  0  0  0  0  0
   -3.8368   -0.3744   28.4346 C   0  0  1  0  0  0  0  0  0  0  0  0
   -3.7651   -1.3568   29.1947 C   0  0  0  0  0  0  0  0  0  0  0  0
   -2.6113   -1.5252   30.0428 C   0  0  0  0  0  0  0  0  0  0  0  0
   -2.1735   -1.6285   30.9741 C   0  0  0  0  0  0  0  0  0  0  0  0
   -3.1112   -1.6815   32.1823 C   0  0  0  0  0  0  0  0  0  0  0  0
   -4.4375   -1.7082   31.8180 C   0  0  0  0  0  0  0  0  0  0  0  0
   -4.7356   -1.3714   30.4145 C   0  0  0  0  0  0  0  0  0  0  0  0
   -2.6449    0.3291   27.9046 C   0  0  0  0  0  0  0  0  0  0  0  0
   -2.2961    0.1962   26.9268 O   0  0  0  0  0  0  0  0  0  0  0  0
   -3.9672   -2.7417   28.5815 C   0  0  0  0  0  0  0  0  0  0  0  0
   -3.0400   -3.1605   27.7839 C   0  0  0  0  0  0  0  0  0  0  0  0
   -3.2690   -4.3245   26.9870 C   0  0  0  0  0  0  0  0  0  0  0  0
   -4.4761   -4.9905   27.1761 C   0  0  0  0  0  0  0  0  0  0  0  0
   -5.4476   -4.5162   28.0222 C   0  0  0  0  0  0  0  0  0  0  0  0
   -5.1974   -3.3873   28.7005 C   0  0  0  0  0  0  0  0  0  0  0  0
  2  3  1  0
  5  8  1  0
 10 14  1  0
 14 15  1  6
 15 16  1  0
 17 18  1  0
 15 20  1  0
 19 20  1  0
 14 21  1  0
 21 22  2  0
 15 23  1  0
 16 17  1  0
 18 19  1  0
 23 24  2  0
 24 25  1  0
 25 26  2  0
 26 27  1  0
 27 28  2  0
 28 23  1  0
  1  2  2  0
  2  4  1  0
  4  7  2  0
  7  6  1  0
  6  5  2  0
  5  1  1  0
  8  9  2  0
  9 10  1  0
 10 11  2  0
 11 13  1  0
 13 12  2  0
 12  8  1  0
M  END
$$$$
