No_2820-complexes_sdf/6BKW-FPZ/2024-09-17-14-21-01/
     RDKit          3D

 27 30  0  0  0  0  0  0  0  0999 V2000
   -7.7129    4.2099   27.0854 C   0  0  0  0  0  0  0  0  0  0  0  0
   -8.2112    3.0637   26.9225 C   0  0  0  0  0  0  0  0  0  0  0  0
   -8.5108    5.3904   26.9436 C   0  0  0  0  0  0  0  0  0  0  0  0
   -9.7256    5.1955   26.3518 C   0  0  0  0  0  0  0  0  0  0  0  0
   -9.4995    2.8258   26.4878 C   0  0  0  0  0  0  0  0  0  0  0  0
  -10.2542    3.9691   26.2055 C   0  0  0  0  0  0  0  0  0  0  0  0
   -7.8138    6.9227   27.2348 Cl  0  0  0  0  0  0  0  0  0  0  0  0
   -7.3640    1.8353   27.2492 C   0  0  0  0  0  0  0  0  0  0  0  0
   -6.1498    2.0141   27.7477 N   0  0  0  0  0  0  0  0  0  0  0  0
   -7.5705    0.5687   26.6823 C   0  0  0  0  0  0  0  0  0  0  0  0
   -5.3756    0.9044   28.0005 C   0  0  0  0  0  0  0  0  0  0  0  0
   -4.0709    1.1537   28.7225 C   0  0  0  0  0  0  0  0  0  0  0  0
   -5.7353   -0.3084   27.6538 C   0  0  0  0  0  0  0  0  0  0  0  0
   -4.9126   -1.4098   27.9645 C   0  0  0  0  0  0  0  0  0  0  0  0
   -6.9015   -0.4853   26.9862 C   0  0  0  0  0  0  0  0  0  0  0  0
   -3.2826    0.0847   29.1087 C   0  0  0  0  0  0  0  0  0  0  0  0
   -3.6786   -1.1922   28.7269 C   0  0  0  0  0  0  0  0  0  0  0  0
  -11.6026    3.8379   25.6226 C   0  0  0  0  0  0  0  0  0  0  0  0
  -11.8048    3.7951   24.2517 C   0  0  0  0  0  0  0  0  0  0  0  0
  -11.7000    2.9488   23.6620 C   0  0  0  0  0  0  0  0  0  0  0  0
  -11.7974    2.9402   22.1181 C   0  0  0  0  0  0  0  0  0  0  0  0
  -11.9594    4.1934   21.5476 C   0  0  0  0  0  0  0  0  0  0  0  0
  -11.9534    5.2933   22.3305 C   0  0  0  0  0  0  0  0  0  0  0  0
  -11.8082    5.1946   23.6734 C   0  0  0  0  0  0  0  0  0  0  0  0
  -12.7492    3.6965   26.5239 C   0  0  0  0  0  0  0  0  0  0  0  0
  -13.9346    4.1529   26.1454 C   0  0  0  0  0  0  0  0  0  0  0  0
  -15.0614    4.0399   27.0189 C   0  0  0  0  0  0  0  0  0  0  0  0
  3  7  1  0
  2  8  1  0
  6 18  1  0
 18 19  1  0
 18 25  1  0
 25 26  2  3
 26 27  1  0
  8  9  2  0
  9 11  1  0
 13 15  1  0
 15 10  2  0
 10  8  1  0
 11 12  2  0
 12 16  1  0
 16 17  2  0
 17 14  1  0
 14 13  2  0
 13 11  1  0
  1  2  2  0
  2  5  1  0
  5  6  2  0
  6  4  1  0
  4  3  2  0
  3  1  1  0
 19 20  2  0
 20 21  1  0
 21 22  2  0
 22 23  1  0
 23 24  2  0
 24 19  1  0
M  END
$$$$
