No_2366-complexes_sdf/6BKW-FPZ/2024-09-17-14-21-01/
     RDKit          3D

 22 25  0  0  0  0  0  0  0  0999 V2000
   -7.9040    3.9820   27.1177 C   0  0  0  0  0  0  0  0  0  0  0  0
   -7.8663    4.8694   27.9238 C   0  0  0  0  0  0  0  0  0  0  0  0
   -7.4698    2.6989   27.4277 C   0  0  0  0  0  0  0  0  0  0  0  0
   -7.9683    1.5964   26.8266 C   0  0  1  0  0  0  0  0  0  0  0  0
   -8.9447    1.7923   25.8533 C   0  0  0  0  0  0  0  0  0  0  0  0
   -9.4405    2.9988   25.5757 C   0  0  0  0  0  0  0  0  0  0  0  0
   -8.9424    4.1117   26.2388 C   0  0  0  0  0  0  0  0  0  0  0  0
   -8.2732    6.2141   27.6484 N   0  0  0  0  0  0  0  0  0  0  0  0
   -9.1540    6.5068   26.6734 C   0  0  0  0  0  0  0  0  0  0  0  0
   -9.5312    5.3927   25.9147 C   0  0  0  0  0  0  0  0  0  0  0  0
   -7.3887    0.2740   27.0971 C   0  0  0  0  0  0  0  0  0  0  0  0
   -6.0712    0.1202   27.4872 C   0  0  0  0  0  0  0  0  0  0  0  0
   -5.5432   -1.1091   27.8369 C   0  0  0  0  0  0  0  0  0  0  0  0
   -6.3820   -2.1976   27.7621 C   0  0  0  0  0  0  0  0  0  0  0  0
   -7.9843   -0.9964   27.1431 C   0  0  0  0  0  0  0  0  0  0  0  0
   -7.6025   -2.1179   27.4498 C   0  0  0  0  0  0  0  0  0  0  0  0
   -4.0895   -1.1330   28.2751 C   0  0  0  0  0  0  0  0  0  0  0  0
   -3.2050   -1.5499   27.4233 C   0  0  0  0  0  0  0  0  0  0  0  0
   -1.8749   -1.2144   27.6159 C   0  0  0  0  0  0  0  0  0  0  0  0
   -1.4222   -0.5512   28.7400 C   0  0  0  0  0  0  0  0  0  0  0  0
   -3.7359   -0.2964   29.4450 C   0  0  0  0  0  0  0  0  0  0  0  0
   -2.3745   -0.0933   29.6815 C   0  0  0  0  0  0  0  0  0  0  0  0
  1  3  1  0
  3  4  1  0
  4  5  1  0
  5  6  1  0
  6  7  1  0
  4 11  1  6
 13 17  1  0
  1  2  2  0
  2  8  1  0
  8  9  2  0
  9 10  1  0
 10  7  2  0
  7  1  1  0
 17 18  2  0
 18 19  1  0
 19 20  2  0
 20 22  1  0
 22 21  2  0
 21 17  1  0
 11 12  2  0
 12 13  1  0
 13 14  2  0
 14 16  1  0
 16 15  2  0
 15 11  1  0
M  END
$$$$
