No_220-complexes_sdf/6BKW-FPZ/2024-09-17-14-21-01/
     RDKit          3D

 18 18  0  0  0  0  0  0  0  0999 V2000
   -7.2496    3.8871   27.4508 C   0  0  0  0  0  0  0  0  0  0  0  0
   -7.9379    4.9063   27.8518 C   0  0  0  0  0  0  0  0  0  0  0  0
   -9.3376    4.8647   27.7795 C   0  0  0  0  0  0  0  0  0  0  0  0
   -7.8544    2.6294   27.0414 C   0  0  0  0  0  0  0  0  0  0  0  0
   -9.2665    2.6175   27.0340 C   0  0  0  0  0  0  0  0  0  0  0  0
   -9.9836    3.7042   27.4150 C   0  0  0  0  0  0  0  0  0  0  0  0
   -6.9190    1.5828   26.8057 C   0  0  0  0  0  0  0  0  0  0  0  0
   -7.2690    0.5720   26.1260 N   0  0  0  0  0  0  0  0  0  0  0  0
   -5.8195    1.5272   27.4697 O   0  0  0  0  0  0  0  0  0  0  0  0
   -6.4911   -0.6464   25.8907 C   0  0  0  0  0  0  0  0  0  0  0  0
  -11.4567    3.8256   27.3815 C   0  0  0  0  0  0  0  0  0  0  0  0
  -12.1411    3.7605   28.6618 C   0  0  0  0  0  0  0  0  0  0  0  0
  -11.7479    3.0904   29.6684 C   0  0  0  0  0  0  0  0  0  0  0  0
  -13.4506    4.5446   28.6685 C   0  0  0  0  0  0  0  0  0  0  0  0
   -7.2873    6.0827   28.2287 N   0  0  0  0  0  0  0  0  0  0  0  0
  -13.8370    5.3216   27.7624 C   0  0  0  0  0  0  0  0  0  0  0  0
  -12.6838    2.9282   30.8114 C   0  0  0  0  0  0  0  0  0  0  0  0
  -13.8510    3.6102   30.8978 C   0  0  0  0  0  0  0  0  0  0  0  0
  4  7  1  0
  7  8  1  0
  7  9  2  0
  8 10  1  0
  6 11  1  0
 11 12  1  0
 12 13  1  0
 12 14  1  0
  2 15  1  0
 14 16  2  0
 13 17  1  0
 17 18  2  0
  1  2  2  0
  2  3  1  0
  3  6  2  0
  6  5  1  0
  5  4  2  0
  4  1  1  0
M  END
$$$$
