No_2407-complexes_sdf/6BKW-FPZ/2024-09-17-14-21-01/
     RDKit          3D

 24 26  0  0  0  0  0  0  0  0999 V2000
   -7.7129    4.2099   27.0854 C   0  0  0  0  0  0  0  0  0  0  0  0
   -8.2112    3.0637   26.9225 C   0  0  0  0  0  0  0  0  0  0  0  0
   -9.5629    2.7997   27.0678 C   0  0  0  0  0  0  0  0  0  0  0  0
   -8.5175    5.2777   27.4069 C   0  0  0  0  0  0  0  0  0  0  0  0
   -9.8941    5.1435   27.4505 C   0  0  0  0  0  0  0  0  0  0  0  0
  -10.4219    3.8965   27.3534 C   0  0  0  0  0  0  0  0  0  0  0  0
   -7.8419    6.8661   27.6343 Cl  0  0  0  0  0  0  0  0  0  0  0  0
  -10.1039    1.4281   26.8885 C   0  0  0  0  0  0  0  0  0  0  0  0
  -10.1392    0.5794   27.4267 C   0  0  0  0  0  0  0  0  0  0  0  0
  -10.6475   -0.7889   27.2139 C   0  0  0  0  0  0  0  0  0  0  0  0
  -11.2278   -0.9140   25.9965 C   0  0  0  0  0  0  0  0  0  0  0  0
  -11.2671    0.1216   25.1455 C   0  0  0  0  0  0  0  0  0  0  0  0
  -10.6555    1.3665   25.5219 C   0  0  0  0  0  0  0  0  0  0  0  0
  -11.8685    3.7150   27.4723 C   0  0  0  0  0  0  0  0  0  0  0  0
  -12.4123    3.7785   28.7393 C   0  0  0  0  0  0  0  0  0  0  0  0
  -13.7874    3.6738   29.0862 C   0  0  0  0  0  0  0  0  0  0  0  0
  -14.6449    3.7378   27.9949 C   0  0  0  0  0  0  0  0  0  0  0  0
  -14.1498    3.8032   26.6846 C   0  0  0  0  0  0  0  0  0  0  0  0
  -12.7816    3.8552   26.4409 C   0  0  0  0  0  0  0  0  0  0  0  0
  -15.3330    3.8438   25.2556 Br  0  0  0  0  0  0  0  0  0  0  0  0
  -14.2328    3.5793   30.4921 C   0  0  0  0  0  0  0  0  0  0  0  0
  -15.0906    2.9419   30.7565 N   0  0  0  0  0  0  0  0  0  0  0  0
  -15.5919    2.0480   30.6645 C   0  0  0  0  0  0  0  0  0  0  0  0
  -16.8537    1.6608   31.1346 C   0  0  0  0  0  0  0  0  0  0  0  0
  4  7  1  0
  3  8  1  0
  6 14  1  0
 18 20  1  0
 16 21  1  0
 21 22  1  0
 22 23  1  0
 23 24  2  0
 14 15  2  0
 15 16  1  0
 16 17  2  0
 17 18  1  0
 18 19  2  0
 19 14  1  0
  1  2  2  0
  2  3  1  0
  3  6  2  0
  6  5  1  0
  5  4  2  0
  4  1  1  0
  8  9  2  0
  9 10  1  0
 10 11  2  0
 11 12  1  0
 12 13  2  0
 13  8  1  0
M  END
$$$$
