No_2102-complexes_sdf/6BKW-FPZ/2024-09-17-14-21-01/
     RDKit          3D

 13 14  0  0  0  0  0  0  0  0999 V2000
   -7.7129    4.2099   27.0854 C   0  0  0  0  0  0  0  0  0  0  0  0
   -7.7814    5.1722   27.8972 C   0  0  0  0  0  0  0  0  0  0  0  0
   -8.8776    3.8408   26.3416 C   0  0  0  0  0  0  0  0  0  0  0  0
   -8.9136    2.6330   25.5655 C   0  0  0  0  0  0  0  0  0  0  0  0
   -8.8361    6.1389   27.9032 C   0  0  0  0  0  0  0  0  0  0  0  0
   -9.8295    4.8219   26.2725 C   0  0  0  0  0  0  0  0  0  0  0  0
   -9.8494    5.9177   27.0428 C   0  0  0  0  0  0  0  0  0  0  0  0
   -9.8486    2.3954   24.6074 C   0  0  0  0  0  0  0  0  0  0  0  0
   -9.6613    1.3648   23.7415 C   0  0  0  0  0  0  0  0  0  0  0  0
   -8.6760    0.3614   23.9632 C   0  0  0  0  0  0  0  0  0  0  0  0
   -7.8241    0.5160   25.0483 C   0  0  0  0  0  0  0  0  0  0  0  0
   -7.8628    1.6628   25.8437 C   0  0  0  0  0  0  0  0  0  0  0  0
  -10.8538    4.6414   25.4298 F   0  0  0  0  0  0  0  0  0  0  0  0
  3  4  1  0
  6 13  1  0
  4  8  2  0
  8  9  1  0
  9 10  2  0
 10 11  1  0
 11 12  2  0
 12  4  1  0
  1  2  2  0
  2  5  1  0
  5  7  2  0
  7  6  1  0
  6  3  2  0
  3  1  1  0
M  END
$$$$
