No_2388-complexes_sdf/6BKW-FPZ/2024-09-17-14-21-01/
     RDKit          3D

 23 25  0  0  0  0  0  0  0  0999 V2000
   -7.2496    3.8871   27.4508 C   0  0  0  0  0  0  0  0  0  0  0  0
   -7.9379    4.9063   27.8518 C   0  0  0  0  0  0  0  0  0  0  0  0
   -7.4895    6.2027   27.7481 C   0  0  0  0  0  0  0  0  0  0  0  0
   -7.4701    2.5429   27.5231 C   0  0  0  0  0  0  0  0  0  0  0  0
   -8.8176    2.1756   27.8084 C   0  0  0  0  0  0  0  0  0  0  0  0
   -9.7372    3.2213   28.0689 C   0  0  0  0  0  0  0  0  0  0  0  0
   -9.3528    4.6064   28.1440 C   0  0  0  0  0  0  0  0  0  0  0  0
  -11.1399    2.8566   28.4575 C   0  0  0  0  0  0  0  0  0  0  0  0
  -12.0624    3.8276   28.6994 C   0  0  0  0  0  0  0  0  0  0  0  0
  -13.3930    3.5659   29.0835 C   0  0  0  0  0  0  0  0  0  0  0  0
  -13.6962    2.2075   29.2747 C   0  0  0  0  0  0  0  0  0  0  0  0
  -12.8069    1.1909   29.0116 C   0  0  0  0  0  0  0  0  0  0  0  0
  -11.5169    1.5217   28.6435 C   0  0  0  0  0  0  0  0  0  0  0  0
   -6.5709    1.4715   27.1884 C   0  0  0  0  0  0  0  0  0  0  0  0
   -5.4025    1.3207   28.0609 C   0  0  0  0  0  0  0  0  0  0  0  0
   -4.4888    0.2378   27.9287 C   0  0  0  0  0  0  0  0  0  0  0  0
   -4.8290   -0.7165   26.9864 C   0  0  0  0  0  0  0  0  0  0  0  0
   -5.9617   -0.6037   26.1886 C   0  0  0  0  0  0  0  0  0  0  0  0
   -6.8595    0.4464   26.3519 C   0  0  0  0  0  0  0  0  0  0  0  0
   -3.2775    0.1909   28.7255 C   0  0  0  0  0  0  0  0  0  0  0  0
   -2.2655    0.5251   28.1274 F   0  0  0  0  0  0  0  0  0  0  0  0
   -3.3027    1.0727   29.8771 F   0  0  0  0  0  0  0  0  0  0  0  0
   -3.1801   -1.0500   29.2621 F   0  0  0  0  0  0  0  0  0  0  0  0
  2  3  1  0
  6  8  1  0
  4 14  1  0
 16 20  1  0
 20 21  1  0
 20 22  1  0
 20 23  1  0
 14 15  2  0
 15 16  1  0
 16 17  2  0
 17 18  1  0
 18 19  2  0
 19 14  1  0
  1  2  2  0
  2  7  1  0
  7  6  2  0
  6  5  1  0
  5  4  2  0
  4  1  1  0
  8  9  2  0
  9 10  1  0
 10 11  2  0
 11 12  1  0
 12 13  2  0
 13  8  1  0
M  END
$$$$
