No_2594-complexes_sdf/6BKW-FPZ/2024-09-17-14-21-01/
     RDKit          3D

 22 24  0  0  0  0  0  0  0  0999 V2000
   -7.9040    3.9820   27.1177 C   0  0  0  0  0  0  0  0  0  0  0  0
   -7.8663    4.8694   27.9238 C   0  0  0  0  0  0  0  0  0  0  0  0
   -7.4547    2.7080   27.4594 C   0  0  0  0  0  0  0  0  0  0  0  0
   -8.7044    6.0412   27.8492 C   0  0  0  0  0  0  0  0  0  0  0  0
   -7.9501    1.5743   26.8848 C   0  0  0  0  0  0  0  0  0  0  0  0
   -8.8711    1.7575   25.8527 C   0  0  0  0  0  0  0  0  0  0  0  0
   -9.3585    2.9740   25.5109 C   0  0  0  0  0  0  0  0  0  0  0  0
   -8.8963    4.1169   26.2090 C   0  0  0  0  0  0  0  0  0  0  0  0
   -9.5489    5.3391   26.1902 C   0  0  0  0  0  0  0  0  0  0  0  0
   -9.3820    6.3910   26.9038 C   0  0  0  0  0  0  0  0  0  0  0  0
   -7.3369    0.2514   27.1196 C   0  0  0  0  0  0  0  0  0  0  0  0
   -6.0578    0.1272   27.6729 C   0  0  0  0  0  0  0  0  0  0  0  0
   -5.1369    1.1155   27.6701 C   0  0  0  0  0  0  0  0  0  0  0  0
   -3.7815    0.6808   28.0033 C   0  0  0  0  0  0  0  0  0  0  0  0
   -3.5458   -0.4819   28.5581 C   0  0  0  0  0  0  0  0  0  0  0  0
   -4.4892   -1.4467   28.6019 C   0  0  0  0  0  0  0  0  0  0  0  0
   -5.7703   -1.1767   28.1535 C   0  0  0  0  0  0  0  0  0  0  0  0
   -8.1174   -0.7379   26.8882 O   0  0  0  0  0  0  0  0  0  0  0  0
   -2.1212   -0.7572   29.0328 C   0  0  0  0  0  0  0  0  0  0  0  0
   -1.2278   -0.9214   28.1086 N   0  0  0  0  0  0  0  0  0  0  0  0
   -1.8841   -0.9058   30.3075 O   0  0  0  0  0  0  0  0  0  0  0  0
   -1.3813   -0.8383   26.6961 C   0  0  0  0  0  0  0  0  0  0  0  0
  5 11  1  0
 11 12  1  0
 11 18  2  0
 15 19  1  0
 19 20  1  0
 19 21  2  0
 20 22  1  0
 12 13  2  0
 13 14  1  0
 14 15  2  0
 15 16  1  0
 16 17  2  0
 17 12  1  0
  1  3  1  0
  3  5  2  0
  5  6  1  0
  6  7  2  0
  7  8  1  0
  1  2  2  0
  2  4  1  0
  4 10  2  0
 10  9  1  0
  9  8  2  0
  8  1  1  0
M  END
$$$$
