No_2346-complexes_sdf/6BKW-FPZ/2024-09-17-14-21-01/
     RDKit          3D

 24 25  0  0  0  0  0  0  0  0999 V2000
   -7.7129    4.2099   27.0854 C   0  0  0  0  0  0  0  0  0  0  0  0
   -7.7814    5.1722   27.8972 C   0  0  0  0  0  0  0  0  0  0  0  0
   -8.8998    3.8713   26.3707 C   0  0  0  0  0  0  0  0  0  0  0  0
   -9.9938    4.6774   26.5446 C   0  0  0  0  0  0  0  0  0  0  0  0
   -8.7789    6.1536   27.9256 C   0  0  0  0  0  0  0  0  0  0  0  0
   -9.9428    5.8398   27.2296 C   0  0  0  0  0  0  0  0  0  0  0  0
   -8.9208    2.6404   25.5721 C   0  0  0  0  0  0  0  0  0  0  0  0
   -9.8143    2.5212   24.5327 C   0  0  0  0  0  0  0  0  0  0  0  0
   -9.8784    1.3928   23.8415 C   0  0  0  0  0  0  0  0  0  0  0  0
   -8.9325    0.3260   24.0854 C   0  0  0  0  0  0  0  0  0  0  0  0
   -8.0777    0.4386   25.1449 C   0  0  0  0  0  0  0  0  0  0  0  0
   -8.0365    1.5929   25.9275 C   0  0  0  0  0  0  0  0  0  0  0  0
   -6.6455    5.5738   28.5705 F   0  0  0  0  0  0  0  0  0  0  0  0
  -10.7754    1.2443   22.6726 C   0  0  0  0  0  0  0  0  0  0  0  0
  -10.8681    2.0838   21.8133 N   0  0  0  0  0  0  0  0  0  0  0  0
  -11.5206    2.1475   20.7072 C   0  0  0  0  0  0  0  0  0  0  0  0
  -11.6961    0.4105   22.7163 O   0  0  0  0  0  0  0  0  0  0  0  0
   -7.1499   -0.6434   25.4731 C   0  0  2  0  0  0  0  0  0  0  0  0
   -6.4189   -0.6453   26.3512 O   0  0  0  0  0  0  0  0  0  0  0  0
   -7.0595   -1.6748   24.5465 N   0  0  0  0  0  0  0  0  0  0  0  0
   -6.2558   -2.5039   24.6033 C   0  0  0  0  0  0  0  0  0  0  0  0
  -11.6871    3.4291   20.0664 C   0  0  0  0  0  0  0  0  0  0  0  0
  -10.9152    4.5544   20.5010 C   0  0  0  0  0  0  0  0  0  0  0  0
  -10.1895    4.4286   21.6899 C   0  0  0  0  0  0  0  0  0  0  0  0
  3  7  1  0
  2 13  1  0
  9 14  1  0
 14 15  1  0
 15 16  2  3
 14 17  2  0
 11 18  1  0
 18 19  1  6
 18 20  1  0
 20 21  1  0
 16 22  1  0
 22 23  2  3
 23 24  1  0
  1  2  2  0
  2  5  1  0
  5  6  2  0
  6  4  1  0
  4  3  2  0
  3  1  1  0
  7  8  2  0
  8  9  1  0
  9 10  2  0
 10 11  1  0
 11 12  2  0
 12  7  1  0
M  END
$$$$
