No_2493-complexes_sdf/6BKW-FPZ/2024-09-17-14-21-01/
     RDKit          3D

 19 21  0  0  0  0  0  0  0  0999 V2000
   -7.7129    4.2099   27.0854 C   0  0  0  0  0  0  0  0  0  0  0  0
   -7.7814    5.1722   27.8972 C   0  0  0  0  0  0  0  0  0  0  0  0
   -7.3155    2.9699   27.6145 C   0  0  0  0  0  0  0  0  0  0  0  0
   -6.9774    2.0071   26.9623 C   0  0  0  0  0  0  0  0  0  0  0  0
   -6.2970    0.8917   27.5555 C   0  0  0  0  0  0  0  0  0  0  0  0
   -5.1754    1.2230   28.2612 C   0  0  0  0  0  0  0  0  0  0  0  0
   -4.5188    0.1045   28.9434 C   0  0  0  0  0  0  0  0  0  0  0  0
   -5.0358   -1.0977   28.9434 C   0  0  0  0  0  0  0  0  0  0  0  0
   -6.6395   -0.4241   27.6852 C   0  0  0  0  0  0  0  0  0  0  0  0
   -6.1663   -1.3870   28.3145 C   0  0  0  0  0  0  0  0  0  0  0  0
   -8.2699    6.4578   27.3643 C   0  0  0  0  0  0  0  0  0  0  0  0
   -8.9364    6.5759   26.1497 C   0  0  0  0  0  0  0  0  0  0  0  0
   -9.0730    5.3504   25.4572 C   0  0  0  0  0  0  0  0  0  0  0  0
   -8.5566    4.1495   25.9666 C   0  0  0  0  0  0  0  0  0  0  0  0
   -4.2764   -2.1601   29.7566 C   0  0  0  0  0  0  0  0  0  0  0  0
   -4.0979   -2.1898   30.8471 C   0  0  0  0  0  0  0  0  0  0  0  0
   -3.3445   -3.1609   31.6151 C   0  0  0  0  0  0  0  0  0  0  0  0
   -2.9192   -4.2262   30.8133 C   0  0  0  0  0  0  0  0  0  0  0  0
   -3.6789   -3.4495   29.2380 C   0  0  0  0  0  0  0  0  0  0  0  0
  3  4  1  0
  4  5  1  0
  8 15  1  0
 15 16  1  0
 16 17  2  0
 17 18  1  0
 15 19  1  0
 18 19  2  0
  3  1  1  0
  5  6  2  0
  6  7  1  0
  7  8  2  0
  8 10  1  0
 10  9  2  0
  9  5  1  0
  1  2  2  0
  2 11  1  0
 11 12  2  0
 12 13  1  0
 13 14  2  0
 14  1  1  0
M  END
$$$$
