No_2264-complexes_sdf/6BKW-FPZ/2024-09-17-14-21-01/
     RDKit          3D

 32 35  0  0  0  0  0  0  0  0999 V2000
   -7.9040    3.9820   27.1177 C   0  0  0  0  0  0  0  0  0  0  0  0
   -8.2057    2.8231   26.8733 C   0  0  0  0  0  0  0  0  0  0  0  0
   -8.7695    5.0740   26.7916 C   0  0  0  0  0  0  0  0  0  0  0  0
   -8.4337    6.4678   27.0913 C   0  0  0  0  0  0  0  0  0  0  0  0
   -9.3742    2.4311   26.2346 C   0  0  0  0  0  0  0  0  0  0  0  0
  -10.2395    3.4267   25.8887 C   0  0  0  0  0  0  0  0  0  0  0  0
   -9.9567    4.7548   26.1374 C   0  0  0  0  0  0  0  0  0  0  0  0
   -7.9449    7.5014   26.9590 N   0  0  0  0  0  0  0  0  0  0  0  0
   -7.2426    1.6814   27.2966 C   0  0  0  0  0  0  0  0  0  0  0  0
   -7.5505    0.3972   27.2174 N   0  0  0  0  0  0  0  0  0  0  0  0
   -5.9401    1.9359   27.6083 N   0  0  0  0  0  0  0  0  0  0  0  0
   -6.4371   -0.2209   27.7081 C   0  0  0  0  0  0  0  0  0  0  0  0
   -5.4624    0.6937   27.9665 C   0  0  0  0  0  0  0  0  0  0  0  0
   -4.0870    0.5210   28.4814 C   0  0  0  0  0  0  0  0  0  0  0  0
   -3.1740    1.1618   28.1592 O   0  0  0  0  0  0  0  0  0  0  0  0
   -4.0262   -0.3233   29.5579 O   0  0  0  0  0  0  0  0  0  0  0  0
   -4.3095    0.0766   30.7018 C   0  0  0  0  0  0  0  0  0  0  0  0
   -4.7935   -0.9977   31.6338 C   0  0  0  0  0  0  0  0  0  0  0  0
   -5.2880   -1.9355   31.2790 C   0  0  0  0  0  0  0  0  0  0  0  0
   -5.9765   -2.8961   32.1724 C   0  0  0  0  0  0  0  0  0  0  0  0
   -5.9392   -2.6025   33.5860 C   0  0  0  0  0  0  0  0  0  0  0  0
   -5.2708   -1.4410   33.9997 C   0  0  0  0  0  0  0  0  0  0  0  0
   -4.7481   -0.5524   33.0947 C   0  0  0  0  0  0  0  0  0  0  0  0
   -5.2243   -1.1363   35.3306 N   0  0  0  0  0  0  0  0  0  0  0  0
   -4.1809   -0.4667   35.9362 C   0  0  0  0  0  0  0  0  0  0  0  0
   -4.2783   -0.1756   37.3406 C   0  0  0  0  0  0  0  0  0  0  0  0
   -5.9587   -1.8912   36.3004 C   0  0  0  0  0  0  0  0  0  0  0  0
   -6.0850   -1.5549   37.6184 C   0  0  0  0  0  0  0  0  0  0  0  0
   -5.1371   -0.6909   38.1755 C   0  0  0  0  0  0  0  0  0  0  0  0
   -3.3327    0.8396   38.0121 C   0  0  1  0  0  0  0  0  0  0  0  0
   -2.2860    1.1892   37.4774 N   0  0  0  0  0  0  0  0  0  0  0  0
   -3.7748    1.4236   39.0078 F   0  0  0  0  0  0  0  0  0  0  0  0
  3  4  1  0
  4  8  3  0
  2  9  1  0
  9 10  1  0
  9 11  2  0
 10 12  1  0
 11 13  1  0
 12 13  2  0
 13 14  1  0
 14 15  2  0
 14 16  1  0
 16 17  1  0
 17 18  1  0
 22 24  1  0
 24 25  1  0
 24 27  1  0
 26 29  1  0
 28 29  1  0
 26 30  1  0
 30 31  1  6
 30 32  1  0
 25 26  1  0
 28 27  1  0
 18 19  2  0
 19 20  1  0
 20 21  2  0
 21 22  1  0
 22 23  2  0
 23 18  1  0
  1  2  2  0
  2  5  1  0
  5  6  2  0
  6  7  1  0
  7  3  2  0
  3  1  1  0
M  END
$$$$
