No_2955-complexes_sdf/6BKW-FPZ/2024-09-17-14-21-01/
     RDKit          3D

 37 42  0  0  0  0  0  0  0  0999 V2000
   -7.9040    3.9820   27.1177 C   0  0  0  0  0  0  0  0  0  0  0  0
   -8.2057    2.8231   26.8733 C   0  0  0  0  0  0  0  0  0  0  0  0
   -8.7695    5.0740   26.7916 C   0  0  0  0  0  0  0  0  0  0  0  0
   -9.9618    4.7598   26.1630 C   0  0  0  0  0  0  0  0  0  0  0  0
   -9.4200    2.4524   26.2849 C   0  0  0  0  0  0  0  0  0  0  0  0
  -10.2590    3.4815   25.9250 C   0  0  0  0  0  0  0  0  0  0  0  0
   -8.3837    6.4702   27.0872 C   0  0  0  0  0  0  0  0  0  0  0  0
   -7.9910    7.5367   27.0318 N   0  0  0  0  0  0  0  0  0  0  0  0
   -7.4813    1.5337   27.2413 C   0  0  0  0  0  0  0  0  0  0  0  0
   -6.1331    1.7556   27.7493 C   0  0  0  0  0  0  0  0  0  0  0  0
   -5.3301    0.6294   28.1382 C   0  0  0  0  0  0  0  0  0  0  0  0
   -4.0297    0.7872   28.6693 C   0  0  0  0  0  0  0  0  0  0  0  0
   -5.9296   -0.6591   28.0241 C   0  0  0  0  0  0  0  0  0  0  0  0
   -7.2184   -0.8324   27.5709 C   0  0  0  0  0  0  0  0  0  0  0  0
   -7.9627    0.2940   27.1954 C   0  0  0  0  0  0  0  0  0  0  0  0
   -3.3139   -0.3622   28.8217 Br  0  0  0  0  0  0  0  0  0  0  0  0
  -11.5271    3.2209   25.1712 C   0  0  1  0  0  0  0  0  0  0  0  0
  -11.5798    3.6193   23.9292 C   0  0  0  0  0  0  0  0  0  0  0  0
  -10.5796    3.6818   23.0972 C   0  0  0  0  0  0  0  0  0  0  0  0
  -10.6138    4.1438   21.7099 C   0  0  0  0  0  0  0  0  0  0  0  0
  -11.8474    4.4169   21.2136 C   0  0  0  0  0  0  0  0  0  0  0  0
  -12.8675    3.9701   23.3397 C   0  0  0  0  0  0  0  0  0  0  0  0
  -12.9857    4.3946   22.0205 C   0  0  0  0  0  0  0  0  0  0  0  0
  -12.5172    2.4911   25.8630 C   0  0  0  0  0  0  0  0  0  0  0  0
  -12.3148    1.4842   26.7249 C   0  0  0  0  0  0  0  0  0  0  0  0
  -13.3401    0.9033   27.4103 C   0  0  0  0  0  0  0  0  0  0  0  0
  -14.6151    1.2264   27.0924 C   0  0  0  0  0  0  0  0  0  0  0  0
  -14.8936    2.2101   26.1780 C   0  0  0  0  0  0  0  0  0  0  0  0
  -13.8836    2.8827   25.6044 C   0  0  0  0  0  0  0  0  0  0  0  0
  -14.0911    3.7150   24.3226 C   0  0  1  0  0  0  0  0  0  0  0  0
  -15.3192    4.3201   24.0232 C   0  0  0  0  0  0  0  0  0  0  0  0
  -16.1644    3.6332   23.3052 C   0  0  0  0  0  0  0  0  0  0  0  0
  -16.2344    2.5017   22.9455 C   0  0  0  0  0  0  0  0  0  0  0  0
  -17.1896    1.8489   22.1131 C   0  0  0  0  0  0  0  0  0  0  0  0
  -18.2516    2.6325   21.7569 C   0  0  0  0  0  0  0  0  0  0  0  0
  -18.2904    3.9502   22.1155 C   0  0  0  0  0  0  0  0  0  0  0  0
  -17.3025    4.5769   22.9089 C   0  0  0  0  0  0  0  0  0  0  0  0
  3  7  1  0
  7  8  3  0
  2  9  1  0
 11 12  1  0
 12 16  1  0
 17  6  1  6
 17 18  1  0
 17 24  1  0
 22 30  1  0
 29 30  1  0
 30 31  1  1
 31 32  1  0
 32 33  2  0
 33 34  1  0
 34 35  2  0
 35 36  1  0
 36 37  2  0
 37 32  1  0
 24 25  2  0
 25 26  1  0
 26 27  2  0
 27 28  1  0
 28 29  2  0
 29 24  1  0
 18 19  2  0
 19 20  1  0
 20 21  2  0
 21 23  1  0
 23 22  2  0
 22 18  1  0
  1  2  2  0
  2  5  1  0
  5  6  2  0
  6  4  1  0
  4  3  2  0
  3  1  1  0
  9 10  2  0
 10 11  1  0
 11 13  2  0
 13 14  1  0
 14 15  2  0
 15  9  1  0
M  END
$$$$
