No_2243-complexes_sdf/6BKW-FPZ/2024-09-17-14-21-01/
     RDKit          3D

 33 37  0  0  0  0  0  0  0  0999 V2000
   -7.2496    3.8871   27.4508 C   0  0  0  0  0  0  0  0  0  0  0  0
   -7.6161    2.7143   27.1523 C   0  0  0  0  0  0  0  0  0  0  0  0
   -7.1618    1.8631   27.5232 C   0  0  0  0  0  0  0  0  0  0  0  0
   -8.0384    5.0866   27.3232 C   0  0  0  0  0  0  0  0  0  0  0  0
   -9.1223    5.1097   26.4856 C   0  0  0  0  0  0  0  0  0  0  0  0
   -8.9186    2.6660   26.4794 C   0  0  0  0  0  0  0  0  0  0  0  0
   -9.4406    1.4100   26.0775 C   0  0  0  0  0  0  0  0  0  0  0  0
   -9.6459    3.8442   26.1282 C   0  0  0  0  0  0  0  0  0  0  0  0
   -7.0745    0.6806   27.0311 C   0  0  0  0  0  0  0  0  0  0  0  0
  -10.5834    1.1474   25.3946 C   0  0  0  0  0  0  0  0  0  0  0  0
   -8.4703    0.2836   26.3809 C   0  0  0  0  0  0  0  0  0  0  0  0
  -10.5372    1.2382   24.0926 C   0  0  0  0  0  0  0  0  0  0  0  0
   -9.7839    0.7501   23.2793 C   0  0  0  0  0  0  0  0  0  0  0  0
   -9.7086    0.9130   21.7941 C   0  0  0  0  0  0  0  0  0  0  0  0
  -10.5944    1.7889   21.2258 C   0  0  0  0  0  0  0  0  0  0  0  0
  -11.4825    2.4267   22.0246 C   0  0  0  0  0  0  0  0  0  0  0  0
  -11.5027    2.2606   23.3707 C   0  0  0  0  0  0  0  0  0  0  0  0
   -7.4706    6.4307   27.7887 C   0  0  0  0  0  0  0  0  0  0  0  0
   -8.7961   -1.0587   26.0137 C   0  0  2  0  0  0  0  0  0  0  0  0
   -9.6142   -1.7056   26.8699 C   0  0  0  0  0  0  0  0  0  0  0  0
   -9.5595   -1.5373   28.2205 C   0  0  0  0  0  0  0  0  0  0  0  0
  -10.6055   -2.5818   26.3295 C   0  0  0  0  0  0  0  0  0  0  0  0
  -11.4600   -2.9781   26.6931 C   0  0  0  0  0  0  0  0  0  0  0  0
  -10.6300   -2.1571   29.0346 C   0  0  0  0  0  0  0  0  0  0  0  0
  -11.6157   -2.9045   28.3115 C   0  0  0  0  0  0  0  0  0  0  0  0
   -7.4289   -1.8402   25.9468 C   0  0  0  0  0  0  0  0  0  0  0  0
   -7.0099   -2.6729   26.7081 C   0  0  0  0  0  0  0  0  0  0  0  0
   -5.9492   -3.3613   26.6768 C   0  0  0  0  0  0  0  0  0  0  0  0
   -5.4742   -4.2114   27.7368 C   0  0  0  0  0  0  0  0  0  0  0  0
   -6.3155   -4.3580   28.8668 C   0  0  0  0  0  0  0  0  0  0  0  0
   -7.4879   -3.6413   28.9843 C   0  0  0  0  0  0  0  0  0  0  0  0
   -7.7817   -2.8044   28.0191 C   0  0  0  0  0  0  0  0  0  0  0  0
   -8.8746   -2.0359   28.2807 N   0  0  0  0  0  0  0  0  0  0  0  0
  7 10  1  0
 10 12  1  0
  4 18  1  0
 19 11  1  1
 19 20  1  0
 19 26  1  0
 26 27  2  3
 27 28  1  0
 28 29  2  3
 29 30  1  0
 30 31  2  3
 31 32  1  0
 21 33  1  0
 32 33  1  0
  1  2  2  0
  6  8  2  0
  8  5  1  0
  5  4  2  0
  4  1  1  0
 20 21  2  0
 21 24  1  0
 24 25  2  0
 25 23  1  0
 23 22  2  0
 22 20  1  0
 12 13  2  0
 13 14  1  0
 14 15  2  0
 15 16  1  0
 16 17  2  0
 17 12  1  0
  2  3  1  0
  3  9  2  0
  9 11  1  0
 11  7  2  0
  7  6  1  0
  6  2  1  0
M  END
$$$$
