No_2151-complexes_sdf/6BKW-FPZ/2024-09-17-14-21-01/
     RDKit          3D

 18 19  0  0  0  0  0  0  0  0999 V2000
   -7.2496    3.8871   27.4508 C   0  0  0  0  0  0  0  0  0  0  0  0
   -8.5096    4.0291   27.2770 C   0  0  0  0  0  0  0  0  0  0  0  0
   -9.2669    5.1645   27.5845 C   0  0  0  0  0  0  0  0  0  0  0  0
   -8.4566    6.3212   27.8001 C   0  0  0  0  0  0  0  0  0  0  0  0
   -6.4921    5.0197   27.7961 C   0  0  0  0  0  0  0  0  0  0  0  0
   -7.1702    6.2351   27.9936 C   0  0  0  0  0  0  0  0  0  0  0  0
   -9.4921    2.9050   27.0139 C   0  0  0  0  0  0  0  0  0  0  0  0
   -9.1863    1.7966   26.7035 O   0  0  0  0  0  0  0  0  0  0  0  0
  -10.8743    3.2012   27.0043 N   0  0  0  0  0  0  0  0  0  0  0  0
  -11.8303    2.1467   26.7935 C   0  0  0  0  0  0  0  0  0  0  0  0
  -12.3864    1.6492   27.8037 C   0  0  0  0  0  0  0  0  0  0  0  0
  -13.3082    0.4998   27.7058 C   0  0  0  0  0  0  0  0  0  0  0  0
  -13.5769    0.0555   26.4352 C   0  0  0  0  0  0  0  0  0  0  0  0
  -12.9323    0.6395   25.3859 C   0  0  0  0  0  0  0  0  0  0  0  0
  -12.0529    1.7281   25.5303 C   0  0  0  0  0  0  0  0  0  0  0  0
  -13.2887    0.1943   23.9964 C   0  0  0  0  0  0  0  0  0  0  0  0
  -13.5679    0.9988   23.0869 C   0  0  0  0  0  0  0  0  0  0  0  0
  -13.7955    0.5745   21.7091 C   0  0  0  0  0  0  0  0  0  0  0  0
  2  7  1  0
  7  8  2  0
  7  9  1  0
  9 10  1  0
 14 16  1  0
 16 17  2  3
 17 18  1  0
  1  2  2  0
  2  3  1  0
  3  4  2  0
  4  6  1  0
  6  5  2  0
  5  1  1  0
 10 11  2  0
 11 12  1  0
 12 13  2  0
 13 14  1  0
 14 15  2  0
 15 10  1  0
M  END
$$$$
