No_2573-complexes_sdf/6BKW-FPZ/2024-09-17-14-21-01/
     RDKit          3D

 40 44  0  0  0  0  0  0  0  0999 V2000
   -7.9040    3.9820   27.1177 C   0  0  0  0  0  0  0  0  0  0  0  0
   -8.2057    2.8231   26.8733 C   0  0  0  0  0  0  0  0  0  0  0  0
   -7.4766    1.7477   27.4593 C   0  0  0  0  0  0  0  0  0  0  0  0
   -8.7468    5.1251   26.6967 C   0  0  0  0  0  0  0  0  0  0  0  0
   -9.7234    4.8589   25.8202 C   0  0  0  0  0  0  0  0  0  0  0  0
   -9.9711    3.5858   25.4266 C   0  0  0  0  0  0  0  0  0  0  0  0
   -9.2266    2.4957   25.9600 C   0  0  0  0  0  0  0  0  0  0  0  0
   -6.1241    1.9216   27.8574 C   0  0  0  0  0  0  0  0  0  0  0  0
   -5.2640    0.7757   28.0398 C   0  0  0  0  0  0  0  0  0  0  0  0
   -5.8084   -0.4565   28.0178 C   0  0  0  0  0  0  0  0  0  0  0  0
   -7.8255    0.3686   27.2831 C   0  0  0  0  0  0  0  0  0  0  0  0
   -7.1096   -0.6465   27.6777 C   0  0  0  0  0  0  0  0  0  0  0  0
   -8.4202    6.5158   27.1071 C   0  0  0  0  0  0  0  0  0  0  0  0
   -7.9154    7.5879   26.9815 N   0  0  0  0  0  0  0  0  0  0  0  0
   -3.9722    1.0582   28.5058 N   0  0  0  0  0  0  0  0  0  0  0  0
   -3.0129    0.0166   28.5536 C   0  0  0  0  0  0  0  0  0  0  0  0
   -3.4473   -1.2022   28.7255 C   0  0  0  0  0  0  0  0  0  0  0  0
   -4.8132   -1.5152   28.3850 C   0  0  0  0  0  0  0  0  0  0  0  0
  -11.0032    3.3262   24.4231 C   0  0  0  0  0  0  0  0  0  0  0  0
  -12.2711    3.0880   24.8372 C   0  0  0  0  0  0  0  0  0  0  0  0
  -13.2889    2.9796   23.9632 C   0  0  0  0  0  0  0  0  0  0  0  0
  -10.6970    3.3631   23.0824 C   0  0  0  0  0  0  0  0  0  0  0  0
  -11.6268    3.2989   22.0936 C   0  0  0  0  0  0  0  0  0  0  0  0
  -12.9755    3.1110   22.5570 C   0  0  0  0  0  0  0  0  0  0  0  0
   -2.5135   -2.2953   28.9481 C   0  0  0  0  0  0  0  0  0  0  0  0
   -1.5029   -2.1504   28.8535 F   0  0  0  0  0  0  0  0  0  0  0  0
   -3.0551   -3.4400   29.2103 F   0  0  0  0  0  0  0  0  0  0  0  0
  -14.3176    2.9362   21.2671 Br  0  0  0  0  0  0  0  0  0  0  0  0
   -7.6842   -1.9897   27.5930 C   0  0  0  0  0  0  0  0  0  0  0  0
   -8.7453   -2.2238   27.1244 C   0  0  0  0  0  0  0  0  0  0  0  0
   -9.4064   -3.4562   27.1435 C   0  0  0  0  0  0  0  0  0  0  0  0
   -8.6551   -4.5135   27.6741 C   0  0  0  0  0  0  0  0  0  0  0  0
   -7.4354   -4.3181   28.2102 C   0  0  0  0  0  0  0  0  0  0  0  0
   -6.9048   -3.0999   28.2662 C   0  0  0  0  0  0  0  0  0  0  0  0
   -9.4189   -6.0665   27.6471 Cl  0  0  0  0  0  0  0  0  0  0  0  0
  -12.6740    3.0838   26.2848 C   0  0  0  0  0  0  0  0  0  0  0  0
  -11.7558    3.1135   27.0308 F   0  0  0  0  0  0  0  0  0  0  0  0
  -13.5888    2.0006   26.4546 O   0  0  0  0  0  0  0  0  0  0  0  0
  -13.4228    4.2726   26.4824 F   0  0  0  0  0  0  0  0  0  0  0  0
  -14.7540    2.1372   26.8261 C   0  0  0  0  0  0  0  0  0  0  0  0
  2  3  1  0
  4 13  1  0
 13 14  3  0
  6 19  1  0
 17 25  1  0
 25 26  1  0
 25 27  1  0
 24 28  1  0
 12 29  1  0
 32 35  1  0
 20 36  1  0
 36 37  1  0
 36 38  1  0
 36 39  1  0
 38 40  1  0
  1  2  2  0
  2  7  1  0
  7  6  2  0
  6  5  1  0
  5  4  2  0
  4  1  1  0
 10 18  2  0
 18 17  1  0
 17 16  2  0
 16 15  1  0
 15  9  2  0
  3  8  2  0
  8  9  1  0
  9 10  1  0
 10 12  1  0
 12 11  2  0
 11  3  1  0
 29 30  2  0
 30 31  1  0
 31 32  2  0
 32 33  1  0
 33 34  2  0
 34 29  1  0
 19 20  2  0
 20 21  1  0
 21 24  2  0
 24 23  1  0
 23 22  2  0
 22 19  1  0
M  END
$$$$
