No_2297-complexes_sdf/6BKW-FPZ/2024-09-17-14-21-01/
     RDKit          3D

 15 16  0  0  0  0  0  0  0  0999 V2000
   -7.9040    3.9820   27.1177 C   0  0  0  0  0  0  0  0  0  0  0  0
   -7.8663    4.8694   27.9238 C   0  0  0  0  0  0  0  0  0  0  0  0
   -9.0953    3.1697   27.0532 C   0  0  0  0  0  0  0  0  0  0  0  0
  -10.1313    3.4052   27.8871 C   0  0  0  0  0  0  0  0  0  0  0  0
   -8.9489    5.3814   28.6671 C   0  0  0  0  0  0  0  0  0  0  0  0
  -11.3390    2.6523   27.8968 C   0  0  0  0  0  0  0  0  0  0  0  0
  -10.0808    4.5561   28.7249 C   0  0  0  0  0  0  0  0  0  0  0  0
  -12.5348    3.0264   28.2024 C   0  0  0  0  0  0  0  0  0  0  0  0
  -13.6820    2.1761   28.2510 C   0  0  0  0  0  0  0  0  0  0  0  0
  -13.4550    0.8371   27.8999 C   0  0  0  0  0  0  0  0  0  0  0  0
  -11.2498    1.1861   27.6414 C   0  0  0  0  0  0  0  0  0  0  0  0
  -12.2375    0.3710   27.6757 C   0  0  0  0  0  0  0  0  0  0  0  0
  -14.6615   -0.1040   27.9404 C   0  0  0  0  0  0  0  0  0  0  0  0
  -14.6158   -1.1644   27.6251 O   0  0  0  0  0  0  0  0  0  0  0  0
  -15.8471    0.5407   27.8716 F   0  0  0  0  0  0  0  0  0  0  0  0
  4  6  1  0
 10 13  1  0
 13 14  2  0
 13 15  1  0
  6  8  2  0
  8  9  1  0
  9 10  2  0
 10 12  1  0
 12 11  2  0
 11  6  1  0
  1  2  2  0
  2  5  1  0
  5  7  2  0
  7  4  1  0
  4  3  2  0
  3  1  1  0
M  END
$$$$
