No_2224-complexes_sdf/6BKW-FPZ/2024-09-17-14-21-01/
     RDKit          3D

 23 25  0  0  0  0  0  0  0  0999 V2000
   -7.7129    4.2099   27.0854 C   0  0  0  0  0  0  0  0  0  0  0  0
   -8.2112    3.0637   26.9225 C   0  0  0  0  0  0  0  0  0  0  0  0
   -7.5138    1.9223   27.4249 C   0  0  0  0  0  0  0  0  0  0  0  0
   -8.5309    5.4147   26.8151 C   0  0  0  0  0  0  0  0  0  0  0  0
   -9.6817    5.2393   26.1100 C   0  0  0  0  0  0  0  0  0  0  0  0
  -10.1032    3.9957   25.8534 C   0  0  0  0  0  0  0  0  0  0  0  0
   -9.4034    2.8430   26.2573 C   0  0  0  0  0  0  0  0  0  0  0  0
   -6.2445    2.0060   27.8662 N   0  0  0  0  0  0  0  0  0  0  0  0
   -5.5344    0.8568   28.2200 C   0  0  0  0  0  0  0  0  0  0  0  0
   -4.1737    0.9460   28.7265 C   0  0  0  0  0  0  0  0  0  0  0  0
   -5.9842   -0.3603   27.7209 C   0  0  0  0  0  0  0  0  0  0  0  0
   -8.2416    0.8635   27.6502 O   0  0  0  0  0  0  0  0  0  0  0  0
   -5.1118   -1.4790   28.0613 C   0  0  0  0  0  0  0  0  0  0  0  0
   -3.4280   -0.1054   29.0788 C   0  0  0  0  0  0  0  0  0  0  0  0
   -3.8799   -1.3369   28.7378 C   0  0  0  0  0  0  0  0  0  0  0  0
   -8.2166    6.8049   27.1199 C   0  0  0  0  0  0  0  0  0  0  0  0
   -7.9344    7.8549   26.8100 N   0  0  0  0  0  0  0  0  0  0  0  0
   -3.0535   -2.5258   29.0185 C   0  0  0  0  0  0  0  0  0  0  0  0
   -3.4686   -3.9328   28.5877 Cl  0  0  0  0  0  0  0  0  0  0  0  0
   -1.8328   -2.2488   29.7803 C   0  0  0  0  0  0  0  0  0  0  0  0
   -1.3756   -1.1756   30.1076 N   0  0  0  0  0  0  0  0  0  0  0  0
   -2.1989    0.0673   29.8021 C   0  0  0  0  0  0  0  0  0  0  0  0
  -11.2212    3.8276   25.1159 F   0  0  0  0  0  0  0  0  0  0  0  0
  2  3  1  0
  3  8  1  0
  3 12  2  0
  4 16  1  0
 16 17  3  0
 18 19  1  0
  6 23  1  0
  8  9  1  0
  9 10  2  0
 10 14  1  0
 15 13  1  0
 13 11  2  0
 11  9  1  0
 14 15  2  0
 15 18  1  0
 18 20  2  0
 20 21  1  0
 21 22  2  0
 22 14  1  0
  1  2  2  0
  2  7  1  0
  7  6  2  0
  6  5  1  0
  5  4  2  0
  4  1  1  0
M  END
$$$$
