No_2794-complexes_sdf/6BKW-FPZ/2024-09-17-14-21-01/
     RDKit          3D

 20 21  0  0  0  0  0  0  0  0999 V2000
   -7.9040    3.9820   27.1177 C   0  0  0  0  0  0  0  0  0  0  0  0
   -7.8663    4.8694   27.9238 C   0  0  0  0  0  0  0  0  0  0  0  0
   -9.0501    3.8017   26.2617 C   0  0  0  0  0  0  0  0  0  0  0  0
  -10.0189    4.7608   26.3707 C   0  0  0  0  0  0  0  0  0  0  0  0
   -8.6770    5.9780   27.9222 C   0  0  0  0  0  0  0  0  0  0  0  0
   -9.8040    5.8752   27.0958 C   0  0  0  0  0  0  0  0  0  0  0  0
   -9.1572    2.4596   25.2621 Cl  0  0  0  0  0  0  0  0  0  0  0  0
   -6.9058    2.5602   27.0638 Cl  0  0  0  0  0  0  0  0  0  0  0  0
  -11.0236    4.7476   25.4969 O   0  0  0  0  0  0  0  0  0  0  0  0
  -10.8606    4.2270   24.2346 C   0  0  0  0  0  0  0  0  0  0  0  0
  -11.4771    3.0966   23.9323 C   0  0  0  0  0  0  0  0  0  0  0  0
  -12.3262    2.6088   24.8231 C   0  0  0  0  0  0  0  0  0  0  0  0
  -12.8497    1.2869   24.6444 C   0  0  0  0  0  0  0  0  0  0  0  0
  -12.5249    0.6281   23.4513 C   0  0  0  0  0  0  0  0  0  0  0  0
  -11.6674    1.1599   22.5035 C   0  0  0  0  0  0  0  0  0  0  0  0
  -11.0372    2.4054   22.7333 C   0  0  0  0  0  0  0  0  0  0  0  0
  -13.0992   -0.7009   23.1437 C   0  0  0  0  0  0  0  0  0  0  0  0
  -12.8946   -1.2532   22.0544 C   0  0  0  0  0  0  0  0  0  0  0  0
  -11.9763   -0.7018   21.0452 C   0  0  0  0  0  0  0  0  0  0  0  0
  -11.3251    0.4972   21.2677 C   0  0  0  0  0  0  0  0  0  0  0  0
  3  7  1  0
  1  8  1  0
  4  9  1  0
  9 10  1  0
 10 11  1  0
 14 17  1  0
 17 18  2  3
 18 19  1  0
 19 20  1  0
 11 12  2  0
 12 13  1  0
 13 14  2  0
 14 15  1  0
 15 16  2  0
 16 11  1  0
  1  2  2  0
  2  5  1  0
  5  6  2  0
  6  4  1  0
  4  3  2  0
  3  1  1  0
M  END
$$$$
