No_2841-complexes_sdf/6BKW-FPZ/2024-09-17-14-21-01/
     RDKit          3D

 21 23  0  0  0  0  0  0  0  0999 V2000
   -7.9040    3.9820   27.1177 C   0  0  0  0  0  0  0  0  0  0  0  0
   -7.8663    4.8694   27.9238 C   0  0  0  0  0  0  0  0  0  0  0  0
   -9.0491    3.8523   26.2542 C   0  0  0  0  0  0  0  0  0  0  0  0
   -9.4067    2.6808   25.6532 C   0  0  0  0  0  0  0  0  0  0  0  0
   -8.5275    6.1191   27.7061 C   0  0  0  0  0  0  0  0  0  0  0  0
   -8.8735    1.4981   26.1333 C   0  0  0  0  0  0  0  0  0  0  0  0
   -7.7349    1.5405   27.0386 C   0  0  0  0  0  0  0  0  0  0  0  0
   -7.3982    2.6877   27.6090 C   0  0  0  0  0  0  0  0  0  0  0  0
   -9.4905    6.2573   26.6237 C   0  0  0  0  0  0  0  0  0  0  0  0
   -9.7361    5.0739   25.9128 C   0  0  0  0  0  0  0  0  0  0  0  0
   -7.1059    0.2626   27.4221 C   0  0  0  0  0  0  0  0  0  0  0  0
   -5.7515    0.2644   27.8186 C   0  0  0  0  0  0  0  0  0  0  0  0
   -5.1618   -0.8339   28.3991 C   0  0  0  0  0  0  0  0  0  0  0  0
   -3.8607   -0.7186   29.0117 C   0  0  0  0  0  0  0  0  0  0  0  0
   -3.1431    0.4426   28.7381 C   0  0  0  0  0  0  0  0  0  0  0  0
   -4.9060    1.4359   27.8043 C   0  0  0  0  0  0  0  0  0  0  0  0
   -3.6702    1.4530   28.2069 N   0  0  0  0  0  0  0  0  0  0  0  0
   -7.8406   -0.9388   27.4019 C   0  0  0  0  0  0  0  0  0  0  0  0
   -7.5527   -1.9159   26.5019 C   0  0  0  0  0  0  0  0  0  0  0  0
   -8.3490   -3.0638   26.4816 C   0  0  0  0  0  0  0  0  0  0  0  0
   -9.1907   -3.1155   27.0685 C   0  0  0  0  0  0  0  0  0  0  0  0
  7 11  1  0
 11 12  1  0
 11 18  1  0
 18 19  2  3
 19 20  1  0
 20 21  2  0
 12 13  2  0
 13 14  1  0
 14 15  2  0
 15 17  1  0
 17 16  2  0
 16 12  1  0
  3  4  1  0
  4  6  2  0
  6  7  1  0
  7  8  2  0
  8  1  1  0
  1  2  2  0
  2  5  1  0
  5  9  2  0
  9 10  1  0
 10  3  2  0
  3  1  1  0
M  END
$$$$
