No_2939-complexes_sdf/6BKW-FPZ/2024-09-17-14-21-01/
     RDKit          3D

 21 22  0  0  0  0  0  0  0  0999 V2000
   -7.2496    3.8871   27.4508 C   0  0  0  0  0  0  0  0  0  0  0  0
   -7.9379    4.9063   27.8518 C   0  0  0  0  0  0  0  0  0  0  0  0
   -7.4895    6.2027   27.7481 C   0  0  0  0  0  0  0  0  0  0  0  0
   -7.8057    2.6324   27.3137 C   0  0  0  0  0  0  0  0  0  0  0  0
   -9.1872    2.4678   27.5434 C   0  0  0  0  0  0  0  0  0  0  0  0
   -9.7707    1.1571   27.4183 C   0  0  0  0  0  0  0  0  0  0  0  0
   -9.8498    3.5817   28.1299 C   0  0  0  0  0  0  0  0  0  0  0  0
   -9.3505    4.8531   28.1588 C   0  0  0  0  0  0  0  0  0  0  0  0
  -10.9945    0.9762   27.9703 C   0  0  0  0  0  0  0  0  0  0  0  0
  -11.6892    1.6879   28.2371 C   0  0  0  0  0  0  0  0  0  0  0  0
  -11.2844    3.2331   28.4740 C   0  0  0  0  0  0  0  0  0  0  0  0
   -6.4052    6.5319   28.0435 O   0  0  0  0  0  0  0  0  0  0  0  0
   -8.2317    7.1595   27.3255 F   0  0  0  0  0  0  0  0  0  0  0  0
   -6.9796    1.5000   26.9020 C   0  0  0  0  0  0  0  0  0  0  0  0
   -5.9458    1.1888   27.5864 O   0  0  0  0  0  0  0  0  0  0  0  0
   -7.3008    0.7343   25.8942 N   0  0  0  0  0  0  0  0  0  0  0  0
   -6.5943   -0.4522   25.4149 C   0  0  0  0  0  0  0  0  0  0  0  0
   -5.7830   -0.9671   26.1706 C   0  0  0  0  0  0  0  0  0  0  0  0
   -5.0669    0.0597   27.0645 C   0  0  0  0  0  0  0  0  0  0  0  0
   -3.8836   -0.1373   27.9250 C   0  0  0  0  0  0  0  0  0  0  0  0
   -4.1340    0.9463   26.0799 C   0  0  0  0  0  0  0  0  0  0  0  0
  2  3  1  0
  3 12  2  0
  3 13  1  0
  4 14  1  0
 14 15  2  0
 14 16  1  0
 16 17  1  0
 17 18  2  3
 18 19  1  0
 19 20  1  0
 19 21  1  0
  5  6  1  0
  6  9  2  0
  9 10  1  0
 10 11  2  0
 11  7  1  0
  1  2  2  0
  2  8  1  0
  8  7  2  0
  7  5  1  0
  5  4  2  0
  4  1  1  0
M  END
$$$$
