No_2505-complexes_sdf/6BKW-FPZ/2024-09-17-14-21-01/
     RDKit          3D

 17 19  0  0  0  0  0  0  0  0999 V2000
   -7.9040    3.9820   27.1177 C   0  0  0  0  0  0  0  0  0  0  0  0
   -7.8663    4.8694   27.9238 C   0  0  0  0  0  0  0  0  0  0  0  0
   -9.0501    3.8017   26.2617 C   0  0  0  0  0  0  0  0  0  0  0  0
   -9.1826    2.7026   25.3575 C   0  0  0  0  0  0  0  0  0  0  0  0
   -8.6940    6.0131   27.8614 C   0  0  0  0  0  0  0  0  0  0  0  0
   -9.9755    4.8547   26.2361 C   0  0  0  0  0  0  0  0  0  0  0  0
   -9.7463    5.9398   27.0364 C   0  0  0  0  0  0  0  0  0  0  0  0
   -8.7079    1.4615   25.7719 C   0  0  0  0  0  0  0  0  0  0  0  0
   -9.8679    2.8075   24.1351 C   0  0  0  0  0  0  0  0  0  0  0  0
   -8.6966    0.3747   24.9258 C   0  0  0  0  0  0  0  0  0  0  0  0
   -9.9428    1.7154   23.3069 C   0  0  0  0  0  0  0  0  0  0  0  0
   -9.3408    0.5169   23.7054 C   0  0  0  0  0  0  0  0  0  0  0  0
   -9.4285   -0.6594   22.7561 C   0  0  0  0  0  0  0  0  0  0  0  0
   -8.3510   -1.3085   22.4802 C   0  0  0  0  0  0  0  0  0  0  0  0
   -7.0947   -0.9962   23.1691 C   0  0  0  0  0  0  0  0  0  0  0  0
   -6.9427   -0.5304   24.1611 C   0  0  0  0  0  0  0  0  0  0  0  0
   -7.1773    0.3161   25.0369 C   0  0  0  0  0  0  0  0  0  0  0  0
  3  4  1  0
 12 13  1  0
 13 14  2  0
 14 15  1  0
 15 16  2  0
 10 17  1  0
 16 17  1  0
  4  8  2  0
  8 10  1  0
 10 12  2  0
 12 11  1  0
 11  9  2  0
  9  4  1  0
  1  2  2  0
  2  5  1  0
  5  7  2  0
  7  6  1  0
  6  3  2  0
  3  1  1  0
M  END
$$$$
