No_2059-complexes_sdf/6BKW-FPZ/2024-09-17-14-21-01/
     RDKit          3D

 13 14  0  0  0  0  0  0  0  0999 V2000
   -7.7129    4.2099   27.0854 C   0  0  0  0  0  0  0  0  0  0  0  0
   -7.7814    5.1722   27.8972 C   0  0  0  0  0  0  0  0  0  0  0  0
   -8.8776    3.8408   26.3416 C   0  0  0  0  0  0  0  0  0  0  0  0
   -9.9844    4.6492   26.4743 C   0  0  0  0  0  0  0  0  0  0  0  0
   -8.7830    6.1594   27.8870 C   0  0  0  0  0  0  0  0  0  0  0  0
   -9.9269    5.8191   27.1183 C   0  0  0  0  0  0  0  0  0  0  0  0
   -8.8747    2.6048   25.5686 C   0  0  0  0  0  0  0  0  0  0  0  0
   -9.7045    1.6474   26.0196 C   0  0  0  0  0  0  0  0  0  0  0  0
  -10.6103    1.5738   26.6630 C   0  0  0  0  0  0  0  0  0  0  0  0
  -11.3103    0.3321   27.1744 C   0  0  0  0  0  0  0  0  0  0  0  0
  -10.7637   -0.8098   26.6804 C   0  0  0  0  0  0  0  0  0  0  0  0
   -9.2325    0.1939   25.6320 C   0  0  0  0  0  0  0  0  0  0  0  0
   -9.7943   -0.8894   25.9631 C   0  0  0  0  0  0  0  0  0  0  0  0
  3  7  1  0
  7  8  1  0
  1  2  2  0
  2  5  1  0
  5  6  2  0
  6  4  1  0
  4  3  2  0
  3  1  1  0
  8  9  2  0
  9 10  1  0
 10 11  2  0
 11 13  1  0
 13 12  2  0
 12  8  1  0
M  END
$$$$
