No_2802-complexes_sdf/6BKW-FPZ/2024-09-17-14-21-01/
     RDKit          3D

 18 19  0  0  0  0  0  0  0  0999 V2000
   -7.7129    4.2099   27.0854 C   0  0  0  0  0  0  0  0  0  0  0  0
   -8.2112    3.0637   26.9225 C   0  0  0  0  0  0  0  0  0  0  0  0
   -8.5108    5.3904   26.9436 C   0  0  0  0  0  0  0  0  0  0  0  0
   -9.7256    5.1955   26.3518 C   0  0  0  0  0  0  0  0  0  0  0  0
   -9.4995    2.8258   26.4878 C   0  0  0  0  0  0  0  0  0  0  0  0
  -10.2542    3.9691   26.2055 C   0  0  0  0  0  0  0  0  0  0  0  0
   -7.9435    6.6171   27.1653 N   0  0  0  0  0  0  0  0  0  0  0  0
   -7.3694    1.8186   27.2504 C   0  0  0  0  0  0  0  0  0  0  0  0
   -6.0571    2.0164   27.7115 C   0  0  0  0  0  0  0  0  0  0  0  0
   -5.2522    0.8553   28.0537 C   0  0  0  0  0  0  0  0  0  0  0  0
   -5.7661   -0.4022   27.9395 C   0  0  0  0  0  0  0  0  0  0  0  0
   -7.8108    0.5180   27.1642 C   0  0  0  0  0  0  0  0  0  0  0  0
   -7.0926   -0.5366   27.5419 C   0  0  0  0  0  0  0  0  0  0  0  0
   -3.6444    1.1504   28.6030 Cl  0  0  0  0  0  0  0  0  0  0  0  0
   -8.5518    7.8247   26.7524 C   0  0  0  0  0  0  0  0  0  0  0  0
  -11.5867    3.8071   25.5928 C   0  0  0  0  0  0  0  0  0  0  0  0
  -12.6619    3.6539   26.3996 C   0  0  0  0  0  0  0  0  0  0  0  0
  -13.9784    3.5544   25.8640 C   0  0  0  0  0  0  0  0  0  0  0  0
  3  7  1  0
  2  8  1  0
 10 14  1  0
  7 15  1  0
  6 16  1  0
 16 17  2  3
 17 18  1  0
  1  2  2  0
  2  5  1  0
  5  6  2  0
  6  4  1  0
  4  3  2  0
  3  1  1  0
  8  9  2  0
  9 10  1  0
 10 11  2  0
 11 13  1  0
 13 12  2  0
 12  8  1  0
M  END
$$$$
