No_2227-complexes_sdf/6BKW-FPZ/2024-09-17-14-21-01/
     RDKit          3D

 40 46  0  0  0  0  0  0  0  0999 V2000
   -7.2496    3.8871   27.4508 C   0  0  0  0  0  0  0  0  0  0  0  0
   -7.6161    2.7143   27.1523 C   0  0  0  0  0  0  0  0  0  0  0  0
   -8.8302    2.4659   26.5056 C   0  0  0  0  0  0  0  0  0  0  0  0
   -8.1584    5.0090   27.3234 C   0  0  0  0  0  0  0  0  0  0  0  0
   -9.3788    4.7965   26.7695 C   0  0  0  0  0  0  0  0  0  0  0  0
   -9.7028    3.5649   26.3276 C   0  0  0  0  0  0  0  0  0  0  0  0
   -6.7803    1.6411   27.3559 N   0  0  0  0  0  0  0  0  0  0  0  0
   -5.6034    1.7594   28.0457 C   0  0  0  0  0  0  0  0  0  0  0  0
   -4.7914    0.5022   28.2252 C   0  0  0  0  0  0  0  0  0  0  0  0
   -3.5674    0.5749   28.9090 C   0  0  0  0  0  0  0  0  0  0  0  0
   -5.5242   -0.6670   28.0781 C   0  0  0  0  0  0  0  0  0  0  0  0
   -2.8324   -0.6057   29.2001 C   0  0  0  0  0  0  0  0  0  0  0  0
   -4.8066   -1.8678   28.4230 C   0  0  0  0  0  0  0  0  0  0  0  0
   -3.5296   -1.8254   28.9440 C   0  0  0  0  0  0  0  0  0  0  0  0
   -7.9491    6.3254   27.7489 N   0  0  0  0  0  0  0  0  0  0  0  0
   -7.1647    0.3554   26.8665 C   0  0  2  0  0  0  0  0  0  0  0  0
   -8.2410    0.0770   26.1949 C   0  0  0  0  0  0  0  0  0  0  0  0
   -9.1572    1.1590   26.0425 C   0  0  2  0  0  0  0  0  0  0  0  0
   -6.5950   -0.7633   27.4073 N   0  0  0  0  0  0  0  0  0  0  0  0
   -8.6902    7.3018   27.1693 C   0  0  0  0  0  0  0  0  0  0  0  0
   -2.7958   -3.0415   29.3519 C   0  0  0  0  0  0  0  0  0  0  0  0
   -3.4220   -4.0527   29.5929 C   0  0  0  0  0  0  0  0  0  0  0  0
   -2.7793   -5.3059   29.9080 C   0  0  0  0  0  0  0  0  0  0  0  0
   -1.3805   -5.3099   29.9570 C   0  0  0  0  0  0  0  0  0  0  0  0
   -0.6569   -4.1782   29.7224 C   0  0  0  0  0  0  0  0  0  0  0  0
   -1.2981   -2.9656   29.4226 C   0  0  0  0  0  0  0  0  0  0  0  0
  -10.3879    0.9509   25.2305 C   0  0  0  0  0  0  0  0  0  0  0  0
  -11.5062    0.6911   25.7850 C   0  0  0  0  0  0  0  0  0  0  0  0
  -10.2761    1.0814   23.7948 C   0  0  0  0  0  0  0  0  0  0  0  0
   -9.3135    1.2711   23.1225 C   0  0  0  0  0  0  0  0  0  0  0  0
   -9.2963    1.3914   21.6529 C   0  0  0  0  0  0  0  0  0  0  0  0
  -10.4838    1.3077   21.0689 C   0  0  0  0  0  0  0  0  0  0  0  0
  -11.4434    1.0700   22.9886 C   0  0  0  0  0  0  0  0  0  0  0  0
  -11.5453    1.1632   21.7246 C   0  0  0  0  0  0  0  0  0  0  0  0
  -12.6659    0.4311   25.4040 C   0  0  0  0  0  0  0  0  0  0  0  0
  -12.7049    0.6651   23.8241 C   0  0  0  0  0  0  0  0  0  0  0  0
  -13.9775    0.4776   23.1216 C   0  0  2  0  0  0  0  0  0  0  0  0
  -14.2881   -0.7412   22.7793 C   0  0  0  0  0  0  0  0  0  0  0  0
  -15.2304   -1.0000   21.8964 C   0  0  0  0  0  0  0  0  0  0  0  0
  -14.1936    1.4815   22.1069 C   0  0  0  0  0  0  0  0  0  0  0  0
  2  7  1  0
  7  8  1  0
  4 15  1  0
  7 16  1  0
  3 18  1  0
 17 18  1  0
 11 19  1  0
 16 19  1  0
 15 20  2  0
 14 21  1  0
 18 27  1  6
 36 37  1  0
 37 38  1  0
 38 39  2  0
 37 40  1  6
  8  9  1  0
 16 17  1  1
  9 10  2  0
 10 12  1  0
 12 14  2  0
 14 13  1  0
 13 11  2  0
 11  9  1  0
  1  2  2  0
  2  3  1  0
  3  6  2  0
  6  5  1  0
  5  4  2  0
  4  1  1  0
 29 30  2  0
 30 31  1  0
 31 32  2  0
 32 34  1  0
 34 33  2  0
 27 28  2  0
 28 35  1  0
 35 36  2  0
 36 33  1  0
 33 29  1  0
 29 27  1  0
 21 22  2  0
 22 23  1  0
 23 24  2  0
 24 25  1  0
 25 26  2  0
 26 21  1  0
M  END
$$$$
