No_2106-complexes_sdf/6BKW-FPZ/2024-09-17-14-21-01/
     RDKit          3D

 18 20  0  0  0  0  0  0  0  0999 V2000
   -7.7129    4.2099   27.0854 C   0  0  0  0  0  0  0  0  0  0  0  0
   -8.2112    3.0637   26.9225 C   0  0  0  0  0  0  0  0  0  0  0  0
   -8.5108    5.3904   26.9436 C   0  0  0  0  0  0  0  0  0  0  0  0
   -7.9752    6.6981   27.2112 C   0  0  0  0  0  0  0  0  0  0  0  0
   -9.5213    2.8208   26.4688 C   0  0  0  0  0  0  0  0  0  0  0  0
  -10.2979    3.9327   26.2378 C   0  0  0  0  0  0  0  0  0  0  0  0
   -9.7894    5.2123   26.4395 C   0  0  0  0  0  0  0  0  0  0  0  0
   -7.3451    1.8185   27.1796 C   0  0  0  0  0  0  0  0  0  0  0  0
   -7.7232    0.5262   26.9339 C   0  0  0  0  0  0  0  0  0  0  0  0
   -6.8979   -0.5152   27.3134 C   0  0  0  0  0  0  0  0  0  0  0  0
   -7.3102   -1.8570   27.1636 C   0  0  0  0  0  0  0  0  0  0  0  0
   -8.2921   -2.0248   26.9576 C   0  0  0  0  0  0  0  0  0  0  0  0
   -9.3667   -1.1229   26.5498 C   0  0  0  0  0  0  0  0  0  0  0  0
   -9.0562    0.1827   26.6468 C   0  0  0  0  0  0  0  0  0  0  0  0
   -9.9885    1.4348   26.2751 C   0  0  0  0  0  0  0  0  0  0  0  0
   -8.5962    7.7865   26.8570 O   0  0  0  0  0  0  0  0  0  0  0  0
   -6.7946    6.7790   27.8092 O   0  0  0  0  0  0  0  0  0  0  0  0
  -11.1777    1.1546   25.9787 O   0  0  0  0  0  0  0  0  0  0  0  0
  3  4  1  0
  2  8  1  0
  5 15  1  0
 14 15  1  0
  4 16  2  0
  4 17  1  0
 15 18  2  0
  8  9  1  0
  9 10  2  0
 10 11  1  0
 11 12  2  0
 12 13  1  0
 13 14  2  0
 14  9  1  0
  1  2  2  0
  2  5  1  0
  5  6  2  0
  6  7  1  0
  7  3  2  0
  3  1  1  0
M  END
$$$$
