No_2683-complexes_sdf/6BKW-FPZ/2024-09-17-14-21-01/
     RDKit          3D

 21 22  0  0  0  0  0  0  0  0999 V2000
   -7.7129    4.2099   27.0854 C   0  0  0  0  0  0  0  0  0  0  0  0
   -8.2112    3.0637   26.9225 C   0  0  0  0  0  0  0  0  0  0  0  0
   -9.4446    2.8304   26.1868 C   0  0  0  0  0  0  0  0  0  0  0  0
   -8.4697    5.3956   26.7238 C   0  0  0  0  0  0  0  0  0  0  0  0
   -9.6172    5.2111   25.9513 C   0  0  0  0  0  0  0  0  0  0  0  0
  -10.0424    3.9782   25.6873 C   0  0  0  0  0  0  0  0  0  0  0  0
   -7.9392    6.6271   26.9728 N   0  0  0  0  0  0  0  0  0  0  0  0
   -7.5063    6.8788   28.1460 C   0  0  0  0  0  0  0  0  0  0  0  0
   -8.3034    7.7920   26.2103 C   0  0  0  0  0  0  0  0  0  0  0  0
   -7.5011    1.8012   27.3961 C   0  0  0  0  0  0  0  0  0  0  0  0
   -6.8058    0.9932   26.5744 C   0  0  0  0  0  0  0  0  0  0  0  0
   -6.1351   -0.1160   27.1793 C   0  0  0  0  0  0  0  0  0  0  0  0
   -6.2801   -1.2509   26.9708 C   0  0  0  0  0  0  0  0  0  0  0  0
   -5.4105   -2.3597   27.4189 C   0  0  0  0  0  0  0  0  0  0  0  0
   -4.3861   -2.0199   28.3225 C   0  0  0  0  0  0  0  0  0  0  0  0
   -4.2236   -0.6609   28.7031 C   0  0  0  0  0  0  0  0  0  0  0  0
   -5.0853    0.3174   28.1385 C   0  0  0  0  0  0  0  0  0  0  0  0
   -3.1759   -0.2440   29.6528 C   0  0  0  0  0  0  0  0  0  0  0  0
   -3.1205   -1.0954   30.6301 F   0  0  0  0  0  0  0  0  0  0  0  0
   -1.9654   -0.1586   29.0188 F   0  0  0  0  0  0  0  0  0  0  0  0
   -3.4186    1.0205   30.1717 F   0  0  0  0  0  0  0  0  0  0  0  0
  4  7  1  0
  7  8  1  0
  7  9  1  0
  2 10  1  0
 10 11  2  3
 11 12  1  0
 16 18  1  0
 18 19  1  0
 18 20  1  0
 18 21  1  0
 12 13  2  0
 13 14  1  0
 14 15  2  0
 15 16  1  0
 16 17  2  0
 17 12  1  0
  1  2  2  0
  2  3  1  0
  3  6  2  0
  6  5  1  0
  5  4  2  0
  4  1  1  0
M  END
$$$$
