No_2889-complexes_sdf/6BKW-FPZ/2024-09-17-14-21-01/
     RDKit          3D

 22 24  0  0  0  0  0  0  0  0999 V2000
   -7.9040    3.9820   27.1177 C   0  0  0  0  0  0  0  0  0  0  0  0
   -7.8663    4.8694   27.9238 C   0  0  0  0  0  0  0  0  0  0  0  0
   -7.4547    2.7080   27.4594 C   0  0  0  0  0  0  0  0  0  0  0  0
   -7.9337    1.5946   26.8372 C   0  0  0  0  0  0  0  0  0  0  0  0
   -8.9032    1.7881   25.8510 C   0  0  0  0  0  0  0  0  0  0  0  0
   -9.3787    2.9871   25.5530 C   0  0  0  0  0  0  0  0  0  0  0  0
   -8.9781    4.0300   26.2200 C   0  0  0  0  0  0  0  0  0  0  0  0
   -8.2132    6.2312   27.6173 N   0  0  0  0  0  0  0  0  0  0  0  0
   -9.1696    6.5863   26.7528 C   0  0  0  0  0  0  0  0  0  0  0  0
   -9.5393    5.4067   25.9211 C   0  0  0  0  0  0  0  0  0  0  0  0
   -7.3285    0.2615   27.1217 C   0  0  0  0  0  0  0  0  0  0  0  0
   -6.1570    0.1100   27.6423 N   0  0  0  0  0  0  0  0  0  0  0  0
   -5.2158    0.9043   27.6044 C   0  0  0  0  0  0  0  0  0  0  0  0
   -3.9731    0.4708   28.1743 C   0  0  0  0  0  0  0  0  0  0  0  0
   -4.2053   -0.3787   29.2099 C   0  0  0  0  0  0  0  0  0  0  0  0
   -5.0712   -0.8786   29.4799 C   0  0  0  0  0  0  0  0  0  0  0  0
   -6.3000   -0.6815   28.7513 C   0  0  0  0  0  0  0  0  0  0  0  0
   -7.9798   -0.7022   26.7056 O   0  0  0  0  0  0  0  0  0  0  0  0
   -2.9273   -0.6466   30.1849 C   0  0  0  0  0  0  0  0  0  0  0  0
   -3.0848   -0.6517   31.5035 C   0  0  0  0  0  0  0  0  0  0  0  0
   -4.4245   -1.0693   31.9489 C   0  0  0  0  0  0  0  0  0  0  0  0
   -5.4901   -1.0614   31.0061 C   0  0  0  0  0  0  0  0  0  0  0  0
  4 11  1  0
 11 12  1  0
 12 13  1  0
 14 15  1  0
 12 17  1  0
 16 17  1  0
 11 18  2  0
 15 19  1  0
 19 20  2  3
 20 21  1  0
 21 22  1  0
 13 14  1  0
 15 16  1  0
  1  2  2  0
  2  8  1  0
  8  9  2  0
  9 10  1  0
 10  7  2  0
  1  3  1  0
  3  4  2  0
  4  5  1  0
  5  6  2  0
  6  7  1  0
  7  1  1  0
M  END
$$$$
