No_2119-complexes_sdf/6BKW-FPZ/2024-09-17-14-21-01/
     RDKit          3D

 17 18  0  0  0  0  0  0  0  0999 V2000
   -7.2496    3.8871   27.4508 C   0  0  0  0  0  0  0  0  0  0  0  0
   -7.9379    4.9063   27.8518 C   0  0  0  0  0  0  0  0  0  0  0  0
   -7.4895    6.2027   27.7481 C   0  0  0  0  0  0  0  0  0  0  0  0
   -7.4701    2.5429   27.5231 C   0  0  0  0  0  0  0  0  0  0  0  0
   -8.8176    2.1756   27.8084 C   0  0  0  0  0  0  0  0  0  0  0  0
   -9.7372    3.2214   28.0689 C   0  0  0  0  0  0  0  0  0  0  0  0
   -9.3528    4.6064   28.1440 C   0  0  0  0  0  0  0  0  0  0  0  0
   -6.4051    1.3337   27.0622 Cl  0  0  0  0  0  0  0  0  0  0  0  0
  -11.1221    2.8585   28.4208 C   0  0  2  0  0  0  0  0  0  0  0  0
  -12.1727    3.9422   29.0179 Cl  0  0  0  0  0  0  0  0  0  0  0  0
  -11.6262    1.5380   28.3441 C   0  0  0  0  0  0  0  0  0  0  0  0
  -12.6391    1.3060   27.5818 C   0  0  0  0  0  0  0  0  0  0  0  0
  -13.0433    0.0095   27.4578 C   0  0  0  0  0  0  0  0  0  0  0  0
  -12.2664   -1.0409   28.0506 C   0  0  0  0  0  0  0  0  0  0  0  0
  -11.1305   -0.7541   28.7832 C   0  0  0  0  0  0  0  0  0  0  0  0
  -10.7268    0.5285   28.9071 C   0  0  0  0  0  0  0  0  0  0  0  0
   -7.7498    7.3857   27.2097 N   0  0  0  0  0  0  0  0  0  0  0  0
  2  3  1  0
  4  8  1  0
  6  9  1  0
  9 10  1  1
  9 11  1  0
  3 17  3  0
 11 12  2  0
 12 13  1  0
 13 14  2  0
 14 15  1  0
 15 16  2  0
 16 11  1  0
  1  2  2  0
  2  7  1  0
  7  6  2  0
  6  5  1  0
  5  4  2  0
  4  1  1  0
M  END
$$$$
