No_2604-complexes_sdf/6BKW-FPZ/2024-09-17-14-21-01/
     RDKit          3D

 10  9  0  0  0  0  0  0  0  0999 V2000
   -7.7129    4.2099   27.0854 C   0  0  0  0  0  0  0  0  0  0  0  0
   -8.9133    4.4736   27.0998 C   0  0  0  0  0  0  0  0  0  0  0  0
   -9.7135    3.9633   26.0300 C   0  0  0  0  0  0  0  0  0  0  0  0
   -6.8420    4.9760   28.0851 C   0  0  0  0  0  0  0  0  0  0  0  0
  -10.9164    3.4776   26.1172 C   0  0  0  0  0  0  0  0  0  0  0  0
  -11.0289    2.6088   26.8958 C   0  0  1  0  0  0  0  0  0  0  0  0
  -11.0524    3.0875   28.3628 C   0  0  0  0  0  0  0  0  0  0  0  0
  -11.4275    1.1996   26.8090 C   0  0  0  0  0  0  0  0  0  0  0  0
  -10.9002    0.3175   26.6115 C   0  0  0  0  0  0  0  0  0  0  0  0
  -10.5030   -0.6015   26.6646 C   0  0  0  0  0  0  0  0  0  0  0  0
  1  2  1  0
  2  3  1  0
  1  4  1  0
  3  5  1  0
  5  6  1  0
  6  7  1  1
  6  8  1  0
  8  9  2  3
  9 10  1  0
M  END
$$$$
