No_2714-complexes_sdf/6BKW-FPZ/2024-09-17-14-21-01/
     RDKit          3D

 13 14  0  0  0  0  0  0  0  0999 V2000
   -7.7129    4.2099   27.0854 C   0  0  0  0  0  0  0  0  0  0  0  0
   -7.7814    5.1722   27.8972 C   0  0  0  0  0  0  0  0  0  0  0  0
   -7.3155    2.9699   27.6145 C   0  0  0  0  0  0  0  0  0  0  0  0
   -7.9010    1.7962   27.2023 C   0  0  0  0  0  0  0  0  0  0  0  0
   -7.4626    0.5915   27.6802 C   0  0  0  0  0  0  0  0  0  0  0  0
   -8.5683    6.3779   27.5800 C   0  0  0  0  0  0  0  0  0  0  0  0
   -8.2248   -0.5935   27.4700 C   0  0  0  0  0  0  0  0  0  0  0  0
   -9.1645    1.7620   26.6025 C   0  0  0  0  0  0  0  0  0  0  0  0
   -9.8549    0.6507   26.3454 C   0  0  0  0  0  0  0  0  0  0  0  0
   -9.4058   -0.5369   26.8001 C   0  0  0  0  0  0  0  0  0  0  0  0
   -9.1265    6.4403   26.2388 C   0  0  0  0  0  0  0  0  0  0  0  0
   -8.6957    4.3173   26.0170 C   0  0  0  0  0  0  0  0  0  0  0  0
   -9.2911    5.3871   25.6150 C   0  0  0  0  0  0  0  0  0  0  0  0
  1  3  1  0
  3  4  1  0
  4  5  2  0
  5  7  1  0
  7 10  2  0
 10  9  1  0
  9  8  2  0
  8  4  1  0
  1  2  2  0
  2  6  1  0
  6 11  2  0
 11 13  1  0
 13 12  2  0
 12  1  1  0
M  END
$$$$
