No_2244-complexes_sdf/6BKW-FPZ/2024-09-17-14-21-01/
     RDKit          3D

 27 30  0  0  0  0  0  0  0  0999 V2000
   -7.9040    3.9820   27.1177 C   0  0  0  0  0  0  0  0  0  0  0  0
   -8.2057    2.8231   26.8733 C   0  0  0  0  0  0  0  0  0  0  0  0
   -9.2962    2.4021   26.1155 C   0  0  0  0  0  0  0  0  0  0  0  0
   -8.7358    5.0662   26.5917 C   0  0  0  0  0  0  0  0  0  0  0  0
   -8.4603    6.4492   26.8781 C   0  0  0  0  0  0  0  0  0  0  0  0
  -10.1146    3.3815   25.6105 C   0  0  0  0  0  0  0  0  0  0  0  0
   -9.8194    4.7235   25.8263 C   0  0  0  0  0  0  0  0  0  0  0  0
   -8.1554    6.8470   28.2069 C   0  0  0  0  0  0  0  0  0  0  0  0
   -8.5057    7.4229   25.8575 C   0  0  0  0  0  0  0  0  0  0  0  0
   -7.3140    1.6672   27.4296 C   0  0  0  0  0  0  0  0  0  0  0  0
   -7.6522    0.3274   27.3480 C   0  0  0  0  0  0  0  0  0  0  0  0
   -8.9351    0.0490   26.8763 C   0  0  0  0  0  0  0  0  0  0  0  0
   -9.7204    1.0320   26.1031 C   0  0  0  0  0  0  0  0  0  0  0  0
   -6.8844   -0.6531   28.0198 C   0  0  0  0  0  0  0  0  0  0  0  0
   -5.6237   -0.3808   28.3469 N   0  0  0  0  0  0  0  0  0  0  0  0
   -4.9011    0.5653   27.8522 C   0  0  0  0  0  0  0  0  0  0  0  0
   -3.4038    0.3502   28.0226 C   0  0  0  0  0  0  0  0  0  0  0  0
   -3.0713   -0.9148   27.8968 C   0  0  0  0  0  0  0  0  0  0  0  0
   -5.0833   -0.7368   29.6743 C   0  0  0  0  0  0  0  0  0  0  0  0
   -3.7090   -1.3389   29.4042 C   0  0  1  0  0  0  0  0  0  0  0  0
   -7.2380   -1.8238   28.1600 O   0  0  0  0  0  0  0  0  0  0  0  0
   -3.0838   -2.2584   30.2472 C   0  0  0  0  0  0  0  0  0  0  0  0
   -3.3894   -2.0980   31.5294 C   0  0  0  0  0  0  0  0  0  0  0  0
   -2.8080   -2.9414   32.4128 C   0  0  0  0  0  0  0  0  0  0  0  0
   -2.1163   -3.0335   29.8520 C   0  0  0  0  0  0  0  0  0  0  0  0
   -1.4456   -3.8977   30.7096 C   0  0  0  0  0  0  0  0  0  0  0  0
   -1.8077   -3.8184   32.0862 C   0  0  0  0  0  0  0  0  0  0  0  0
  4  5  1  0
  5  8  2  0
  5  9  1  0
 11 14  1  0
 14 15  1  0
 15 16  1  0
 17 18  1  0
 15 19  1  0
 18 20  1  0
 19 20  1  0
 14 21  2  0
 20 22  1  6
 16 17  1  0
  1  2  2  0
  3  6  2  0
  6  7  1  0
  7  4  2  0
  4  1  1  0
 22 23  2  0
 23 24  1  0
 24 27  2  0
 27 26  1  0
 26 25  2  0
 25 22  1  0
  2  3  1  0
  3 13  1  0
 13 12  2  0
 12 11  1  0
 11 10  2  0
 10  2  1  0
M  END
$$$$
