No_2898-complexes_sdf/6BKW-FPZ/2024-09-17-14-21-01/
     RDKit          3D

 21 23  0  0  0  0  0  0  0  0999 V2000
   -7.9040    3.9820   27.1177 C   0  0  0  0  0  0  0  0  0  0  0  0
   -7.8663    4.8694   27.9238 C   0  0  0  0  0  0  0  0  0  0  0  0
   -9.0953    3.1697   27.0532 C   0  0  0  0  0  0  0  0  0  0  0  0
   -9.1405    2.0104   26.1761 C   0  0  0  0  0  0  0  0  0  0  0  0
   -9.0299    5.5381   28.3948 C   0  0  0  0  0  0  0  0  0  0  0  0
  -10.2709    4.9222   28.1362 C   0  0  0  0  0  0  0  0  0  0  0  0
  -10.2487    3.7550   27.4045 C   0  0  0  0  0  0  0  0  0  0  0  0
   -9.8414    1.7696   25.2539 C   0  0  0  0  0  0  0  0  0  0  0  0
   -9.6823    0.6711   24.4184 C   0  0  0  0  0  0  0  0  0  0  0  0
   -8.0936    1.0097   26.5614 C   0  0  0  0  0  0  0  0  0  0  0  0
   -7.9412   -0.1442   25.9060 C   0  0  0  0  0  0  0  0  0  0  0  0
   -8.7476   -0.2890   24.7816 C   0  0  0  0  0  0  0  0  0  0  0  0
  -11.5423    3.0765   27.1866 C   0  0  0  0  0  0  0  0  0  0  0  0
  -11.9716    2.1692   28.0470 C   0  0  0  0  0  0  0  0  0  0  0  0
  -11.5741    2.1886   29.3836 C   0  0  0  0  0  0  0  0  0  0  0  0
  -12.7340    1.0631   27.5505 C   0  0  0  0  0  0  0  0  0  0  0  0
  -12.8791   -0.1094   28.3460 C   0  0  0  0  0  0  0  0  0  0  0  0
  -13.6362   -1.1544   27.8423 C   0  0  0  0  0  0  0  0  0  0  0  0
  -14.1789   -1.0200   26.5701 C   0  0  0  0  0  0  0  0  0  0  0  0
  -14.0177    0.1292   25.8548 C   0  0  0  0  0  0  0  0  0  0  0  0
  -13.3174    1.1465   26.3542 C   0  0  0  0  0  0  0  0  0  0  0  0
  3  4  1  0
  7 13  1  0
 13 14  1  0
 14 15  2  0
 14 16  1  0
  4  8  2  0
  8  9  1  0
  9 12  2  0
 12 11  1  0
 11 10  2  0
 10  4  1  0
  1  2  2  0
  2  5  1  0
  5  6  2  0
  6  7  1  0
  7  3  2  0
  3  1  1  0
 16 17  2  0
 17 18  1  0
 18 19  2  0
 19 20  1  0
 20 21  2  0
 21 16  1  0
M  END
$$$$
