No_2390-complexes_sdf/6BKW-FPZ/2024-09-17-14-21-01/
     RDKit          3D

 40 44  0  0  0  0  0  0  0  0999 V2000
   -7.9040    3.9820   27.1177 C   0  0  0  0  0  0  0  0  0  0  0  0
   -9.0711    4.3164   27.0630 C   0  0  0  0  0  0  0  0  0  0  0  0
   -9.5294    5.4517   27.7215 C   0  0  0  0  0  0  0  0  0  0  0  0
   -7.4336    2.7132   26.5681 C   0  0  0  0  0  0  0  0  0  0  0  0
   -8.3353    1.8569   26.0442 C   0  0  0  0  0  0  0  0  0  0  0  0
   -9.6477    2.2853   25.9146 C   0  0  0  0  0  0  0  0  0  0  0  0
  -10.0346    3.4497   26.4483 C   0  0  2  0  0  0  0  0  0  0  0  0
   -7.8750    0.5509   25.5918 C   0  0  0  0  0  0  0  0  0  0  0  0
   -8.0040    0.2730   24.4392 O   0  0  0  0  0  0  0  0  0  0  0  0
   -7.1075   -0.0974   26.3993 O   0  0  0  0  0  0  0  0  0  0  0  0
   -7.0688    4.7918   27.9176 N   0  0  0  0  0  0  0  0  0  0  0  0
   -7.4050    5.9287   28.4674 C   0  0  0  0  0  0  0  0  0  0  0  0
   -8.6738    6.3453   28.3323 C   0  0  0  0  0  0  0  0  0  0  0  0
  -11.4280    3.8626   26.1747 C   0  0  0  0  0  0  0  0  0  0  0  0
  -12.2599    2.9325   26.5915 C   0  0  0  0  0  0  0  0  0  0  0  0
  -12.3552    2.1773   27.3387 C   0  0  0  0  0  0  0  0  0  0  0  0
  -12.8136    1.4079   27.9837 C   0  0  0  0  0  0  0  0  0  0  0  0
  -12.8870    0.3766   28.9322 C   0  0  0  0  0  0  0  0  0  0  0  0
  -12.9200   -0.7906   29.2446 C   0  0  0  0  0  0  0  0  0  0  0  0
  -13.2872   -1.0896   30.2743 N   0  0  0  0  0  0  0  0  0  0  0  0
  -13.6758    0.0175   30.9764 C   0  0  0  0  0  0  0  0  0  0  0  0
  -13.5893    1.1149   30.2643 C   0  0  1  0  0  0  0  0  0  0  0  0
  -12.3300   -1.7134   28.1664 C   0  0  0  0  0  0  0  0  0  0  0  0
  -11.3401   -1.6901   27.4887 C   0  0  0  0  0  0  0  0  0  0  0  0
  -10.9184   -2.6532   26.5248 C   0  0  0  0  0  0  0  0  0  0  0  0
  -11.7149   -3.7446   26.4296 C   0  0  0  0  0  0  0  0  0  0  0  0
  -12.9883   -3.0139   27.8236 C   0  0  0  0  0  0  0  0  0  0  0  0
  -12.7356   -3.9041   27.0723 C   0  0  0  0  0  0  0  0  0  0  0  0
  -13.8024    2.4827   30.5717 C   0  0  0  0  0  0  0  0  0  0  0  0
  -13.2784    3.4004   29.9831 O   0  0  0  0  0  0  0  0  0  0  0  0
  -14.6956    2.6963   31.5460 N   0  0  0  0  0  0  0  0  0  0  0  0
  -15.1046    3.9098   31.8715 C   0  0  0  0  0  0  0  0  0  0  0  0
  -14.5744    4.8903   31.5862 C   0  0  0  0  0  0  0  0  0  0  0  0
  -16.2679    3.8209   32.8336 C   0  0  0  0  0  0  0  0  0  0  0  0
  -16.8877    5.0727   33.1810 C   0  0  0  0  0  0  0  0  0  0  0  0
  -15.1744    6.2732   31.9833 C   0  0  0  0  0  0  0  0  0  0  0  0
  -16.2604    6.2693   32.8305 C   0  0  0  0  0  0  0  0  0  0  0  0
  -18.0534    5.0849   34.0901 C   0  0  0  0  0  0  0  0  0  0  0  0
  -17.8598    5.0124   35.3886 C   0  0  0  0  0  0  0  0  0  0  0  0
  -18.9548    5.0076   36.2661 C   0  0  0  0  0  0  0  0  0  0  0  0
  1  4  1  0
  4  5  1  0
  5  6  1  0
  2  7  1  0
  6  7  1  0
  5  8  1  0
  8  9  2  0
  8 10  1  0
  7 14  1  6
 14 15  1  0
 15 16  2  3
 16 17  1  0
 17 18  2  3
 18 19  1  0
 19 20  2  0
 20 21  1  0
 18 22  1  0
 21 22  1  0
 19 23  1  0
 22 29  1  1
 29 30  2  0
 29 31  1  0
 31 32  1  0
 35 38  1  0
 38 39  1  0
 39 40  2  0
 32 33  2  0
 33 36  1  0
 36 37  2  0
 37 35  1  0
 35 34  2  0
 34 32  1  0
 23 24  2  0
 24 25  1  0
 25 26  2  0
 26 28  1  0
 28 27  2  0
 27 23  1  0
  1  2  1  0
  2  3  2  0
  3 13  1  0
 13 12  2  0
 12 11  1  0
 11  1  2  0
M  END
$$$$
