No_2973-complexes_sdf/6BKW-FPZ/2024-09-17-14-21-01/
     RDKit          3D

 23 26  0  0  0  0  0  0  0  0999 V2000
   -7.9040    3.9820   27.1177 C   0  0  0  0  0  0  0  0  0  0  0  0
   -7.8663    4.8694   27.9238 C   0  0  0  0  0  0  0  0  0  0  0  0
   -9.0491    3.8523   26.2542 C   0  0  0  0  0  0  0  0  0  0  0  0
   -8.7661    5.9491   27.9690 C   0  0  0  0  0  0  0  0  0  0  0  0
   -9.9295    4.8502   26.2323 C   0  0  0  0  0  0  0  0  0  0  0  0
   -9.8077    5.9288   27.0933 C   0  0  0  0  0  0  0  0  0  0  0  0
   -7.0146    2.9513   27.1368 F   0  0  0  0  0  0  0  0  0  0  0  0
   -9.1015    2.7190   25.2776 C   0  0  0  0  0  0  0  0  0  0  0  0
  -10.0379    2.8545   24.3050 N   0  0  0  0  0  0  0  0  0  0  0  0
  -10.6415    3.8342   23.8877 C   0  0  0  0  0  0  0  0  0  0  0  0
  -11.5895    3.7729   22.8199 C   0  0  0  0  0  0  0  0  0  0  0  0
   -9.9817    1.7595   23.2611 C   0  0  0  0  0  0  0  0  0  0  0  0
  -10.7390    1.7276   22.1855 C   0  0  0  0  0  0  0  0  0  0  0  0
  -11.4930    2.8152   21.8848 C   0  0  0  0  0  0  0  0  0  0  0  0
   -8.3775    1.7142   25.4827 O   0  0  0  0  0  0  0  0  0  0  0  0
  -12.3300    2.8490   20.6643 C   0  0  0  0  0  0  0  0  0  0  0  0
  -13.4075    3.3803   20.7181 C   0  0  0  0  0  0  0  0  0  0  0  0
  -13.6201    4.5624   21.6742 C   0  0  0  0  0  0  0  0  0  0  0  0
  -12.7010    4.8025   22.6917 C   0  0  0  0  0  0  0  0  0  0  0  0
  -10.5755    0.5846   21.2719 C   0  0  0  0  0  0  0  0  0  0  0  0
   -9.6353   -0.2442   21.4797 N   0  0  0  0  0  0  0  0  0  0  0  0
   -8.8703   -0.2369   22.3932 C   0  0  0  0  0  0  0  0  0  0  0  0
   -8.9149    0.7562   23.4529 C   0  0  0  0  0  0  0  0  0  0  0  0
  1  7  1  0
  3  8  1  0
  8  9  1  0
  9 10  1  0
  9 12  1  0
 13 14  1  0
  8 15  2  0
 10 11  1  0
 12 23  2  0
 23 22  1  0
 22 21  2  0
 21 20  1  0
 20 13  2  0
 13 12  1  0
  1  2  2  0
  2  4  1  0
  4  6  2  0
  6  5  1  0
  5  3  2  0
  3  1  1  0
 11 14  2  0
 14 16  1  0
 16 17  2  0
 17 18  1  0
 18 19  2  0
 19 11  1  0
M  END
$$$$
