No_2381-complexes_sdf/6BKW-FPZ/2024-09-17-14-21-01/
     RDKit          3D

 37 41  0  0  0  0  0  0  0  0999 V2000
   -7.2496    3.8871   27.4508 C   0  0  0  0  0  0  0  0  0  0  0  0
   -7.6161    2.7143   27.1523 C   0  0  0  0  0  0  0  0  0  0  0  0
   -8.8302    2.4659   26.5056 C   0  0  0  0  0  0  0  0  0  0  0  0
   -8.1584    5.0090   27.3234 C   0  0  0  0  0  0  0  0  0  0  0  0
   -9.3788    4.7965   26.7695 C   0  0  0  0  0  0  0  0  0  0  0  0
   -9.7028    3.5649   26.3276 C   0  0  0  0  0  0  0  0  0  0  0  0
   -6.7792    1.6348   27.3517 N   0  0  0  0  0  0  0  0  0  0  0  0
   -7.0195    0.3499   27.0368 C   0  0  0  0  0  0  0  0  0  0  0  0
   -6.1043   -0.6019   27.4919 C   0  0  2  0  0  0  0  0  0  0  0  0
   -6.2732   -1.9245   27.3800 C   0  0  0  0  0  0  0  0  0  0  0  0
   -4.8871    0.1568   28.2124 C   0  0  0  0  0  0  0  0  0  0  0  0
   -4.7675    1.3964   28.4332 C   0  0  0  0  0  0  0  0  0  0  0  0
   -5.6489    2.1957   28.0438 C   0  0  0  0  0  0  0  0  0  0  0  0
   -7.9626    6.4028   27.8110 C   0  0  0  0  0  0  0  0  0  0  0  0
   -6.7940    6.6550   28.0790 N   0  0  0  0  0  0  0  0  0  0  0  0
   -8.8210    7.3070   27.4488 N   0  0  0  0  0  0  0  0  0  0  0  0
   -5.9410   -2.4746   26.3933 O   0  0  0  0  0  0  0  0  0  0  0  0
   -6.8290   -2.6324   28.3469 O   0  0  0  0  0  0  0  0  0  0  0  0
  -10.9886    3.2697   25.6436 C   0  0  0  0  0  0  0  0  0  0  0  0
  -12.0966    2.9641   26.2970 C   0  0  0  0  0  0  0  0  0  0  0  0
  -11.0204    3.3688   24.2021 C   0  0  0  0  0  0  0  0  0  0  0  0
   -9.9088    3.7154   23.3944 C   0  0  0  0  0  0  0  0  0  0  0  0
  -10.0934    3.8190   22.0051 C   0  0  0  0  0  0  0  0  0  0  0  0
  -12.1928    3.1754   23.5408 C   0  0  0  0  0  0  0  0  0  0  0  0
  -12.4081    3.2917   22.1745 C   0  0  0  0  0  0  0  0  0  0  0  0
  -11.2756    3.6259   21.3955 C   0  0  0  0  0  0  0  0  0  0  0  0
  -12.0495    3.0349   27.7565 C   0  0  0  0  0  0  0  0  0  0  0  0
  -11.0936    3.4369   28.5183 C   0  0  0  0  0  0  0  0  0  0  0  0
  -11.3770    3.3935   30.0702 C   0  0  0  0  0  0  0  0  0  0  0  0
  -12.7025    2.9948   30.3956 C   0  0  0  0  0  0  0  0  0  0  0  0
  -13.2434    2.7328   28.6501 C   0  0  2  0  0  0  0  0  0  0  0  0
  -14.4877    2.3018   28.4263 C   0  0  0  0  0  0  0  0  0  0  0  0
  -15.3191    2.0390   29.2026 C   0  0  0  0  0  0  0  0  0  0  0  0
  -16.6688    1.5739   28.8307 C   0  0  0  0  0  0  0  0  0  0  0  0
  -16.8440    1.4228   27.4657 C   0  0  0  0  0  0  0  0  0  0  0  0
  -15.8523    1.7025   26.5642 C   0  0  0  0  0  0  0  0  0  0  0  0
  -14.7016    2.1459   26.9750 C   0  0  0  0  0  0  0  0  0  0  0  0
  2  7  1  0
  7  8  1  0
  9 10  1  1
  9 11  1  0
  7 13  1  0
 12 13  1  0
  4 14  1  0
 14 15  2  0
 14 16  1  0
 10 17  1  0
 10 18  2  0
  6 19  1  0
 19 20  2  3
 19 21  1  0
 20 27  1  0
 27 28  2  0
 28 29  1  0
 29 30  2  0
 27 31  1  0
 30 31  1  0
 31 32  1  1
  8  9  1  0
 11 12  1  0
 32 33  2  0
 33 34  1  0
 34 35  2  0
 35 36  1  0
 36 37  2  0
 37 32  1  0
  1  2  2  0
  2  3  1  0
  3  6  2  0
  6  5  1  0
  5  4  2  0
  4  1  1  0
 21 22  2  0
 22 23  1  0
 23 26  2  0
 26 25  1  0
 25 24  2  0
 24 21  1  0
M  END
$$$$
