No_2252-complexes_sdf/6BKW-FPZ/2024-09-17-14-21-01/
     RDKit          3D

 25 27  0  0  0  0  0  0  0  0999 V2000
   -7.2496    3.8871   27.4508 C   0  0  0  0  0  0  0  0  0  0  0  0
   -7.6161    2.7143   27.1523 C   0  0  0  0  0  0  0  0  0  0  0  0
   -8.6212    2.2239   26.4074 C   0  0  0  0  0  0  0  0  0  0  0  0
   -8.2540    4.9237   27.1711 C   0  0  0  0  0  0  0  0  0  0  0  0
   -9.3709    4.6018   26.4511 C   0  0  0  0  0  0  0  0  0  0  0  0
   -9.5922    3.3274   26.0949 C   0  0  0  0  0  0  0  0  0  0  0  0
   -7.9189    6.3259   27.5672 C   0  0  0  0  0  0  0  0  0  0  0  0
   -8.7722    7.3826   27.0702 C   0  0  0  0  0  0  0  0  0  0  0  0
   -8.9024    0.9063   26.0664 C   0  0  0  0  0  0  0  0  0  0  0  0
   -9.3915    0.5562   25.0280 C   0  0  0  0  0  0  0  0  0  0  0  0
   -9.6352   -0.8354   24.6324 C   0  0  0  0  0  0  0  0  0  0  0  0
   -8.4922   -0.1077   27.0207 C   0  0  0  0  0  0  0  0  0  0  0  0
   -8.6995   -1.4558   26.7723 C   0  0  0  0  0  0  0  0  0  0  0  0
   -9.2935   -1.7854   25.5724 C   0  0  0  0  0  0  0  0  0  0  0  0
   -9.5445   -3.0552   25.2423 F   0  0  0  0  0  0  0  0  0  0  0  0
   -6.5023    6.5099   27.1577 C   0  0  0  0  0  0  0  0  0  0  0  0
   -6.2220    8.0707   27.3023 C   0  0  0  0  0  0  0  0  0  0  0  0
  -10.1682   -1.1823   23.5046 F   0  0  0  0  0  0  0  0  0  0  0  0
   -8.3850   -2.3792   27.6972 O   0  0  0  0  0  0  0  0  0  0  0  0
   -9.0154   -2.3425   28.8732 C   0  0  0  0  0  0  0  0  0  0  0  0
   -8.2052   -3.0426   29.9143 C   0  0  0  0  0  0  0  0  0  0  0  0
   -8.8093   -3.0912   31.2219 C   0  0  0  0  0  0  0  0  0  0  0  0
  -10.1317   -2.6245   31.4122 C   0  0  0  0  0  0  0  0  0  0  0  0
  -10.8369   -2.0789   30.3368 C   0  0  0  0  0  0  0  0  0  0  0  0
  -10.2951   -1.9390   29.1039 C   0  0  0  0  0  0  0  0  0  0  0  0
  4  7  1  0
  7  8  2  0
  3  9  1  0
 14 15  1  0
  7 16  1  0
 16 17  1  0
 11 18  1  0
 13 19  1  0
 19 20  1  0
  9 10  2  0
 10 11  1  0
 11 14  2  0
 14 13  1  0
 13 12  2  0
 12  9  1  0
  1  2  2  0
  2  3  1  0
  3  6  2  0
  6  5  1  0
  5  4  2  0
  4  1  1  0
 20 21  2  0
 21 22  1  0
 22 23  2  0
 23 24  1  0
 24 25  2  0
 25 20  1  0
M  END
$$$$
