No_2799-complexes_sdf/6BKW-FPZ/2024-09-17-14-21-01/
     RDKit          3D

 21 23  0  0  0  0  0  0  0  0999 V2000
   -7.9040    3.9820   27.1177 C   0  0  0  0  0  0  0  0  0  0  0  0
   -8.2057    2.8231   26.8733 C   0  0  0  0  0  0  0  0  0  0  0  0
   -8.7695    5.0740   26.7916 C   0  0  0  0  0  0  0  0  0  0  0  0
   -9.9618    4.7598   26.1630 C   0  0  0  0  0  0  0  0  0  0  0  0
   -9.4200    2.4524   26.2849 C   0  0  0  0  0  0  0  0  0  0  0  0
  -10.2590    3.4815   25.9250 C   0  0  0  0  0  0  0  0  0  0  0  0
   -8.3837    6.4702   27.0872 C   0  0  0  0  0  0  0  0  0  0  0  0
   -7.9910    7.5367   27.0318 N   0  0  0  0  0  0  0  0  0  0  0  0
   -7.1154    1.4987   27.3887 Cl  0  0  0  0  0  0  0  0  0  0  0  0
  -11.5334    3.1513   25.2187 C   0  0  0  0  0  0  0  0  0  0  0  0
  -11.7063    3.5520   23.9700 C   0  0  0  0  0  0  0  0  0  0  0  0
  -12.8535    3.6180   23.3116 C   0  0  0  0  0  0  0  0  0  0  0  0
  -12.1625    1.9548   25.4471 C   0  0  0  0  0  0  0  0  0  0  0  0
  -13.4728    1.8320   24.8827 C   0  0  0  0  0  0  0  0  0  0  0  0
  -13.7292    2.5724   23.7315 C   0  0  0  0  0  0  0  0  0  0  0  0
  -15.0151    2.4255   23.0081 C   0  0  0  0  0  0  0  0  0  0  0  0
  -15.9449    1.7698   23.3710 C   0  0  0  0  0  0  0  0  0  0  0  0
  -17.1467    1.6033   22.5787 C   0  0  0  0  0  0  0  0  0  0  0  0
  -17.1861    2.2501   21.3606 C   0  0  0  0  0  0  0  0  0  0  0  0
  -16.1399    3.0131   20.9386 C   0  0  0  0  0  0  0  0  0  0  0  0
  -14.9884    3.1991   21.7001 C   0  0  0  0  0  0  0  0  0  0  0  0
  3  7  1  0
  7  8  3  0
  2  9  1  0
  6 10  1  0
 15 16  1  0
 16 17  2  0
 17 18  1  0
 18 19  2  0
 19 20  1  0
 20 21  2  0
 21 16  1  0
  1  2  2  0
  2  5  1  0
  5  6  2  0
  6  4  1  0
  4  3  2  0
  3  1  1  0
 10 11  2  0
 11 12  1  0
 12 15  2  0
 15 14  1  0
 14 13  2  0
 13 10  1  0
M  END
$$$$
