No_2234-complexes_sdf/6BKW-FPZ/2024-09-17-14-21-01/
     RDKit          3D

 21 22  0  0  0  0  0  0  0  0999 V2000
   -7.7129    4.2099   27.0854 C   0  0  0  0  0  0  0  0  0  0  0  0
   -8.2112    3.0637   26.9225 C   0  0  0  0  0  0  0  0  0  0  0  0
   -8.5108    5.3904   26.9436 C   0  0  0  0  0  0  0  0  0  0  0  0
   -7.9752    6.6981   27.2112 C   0  0  0  0  0  0  0  0  0  0  0  0
   -9.3028    2.7986   26.6391 C   0  0  0  0  0  0  0  0  0  0  0  0
  -10.2394    3.8537   26.3723 C   0  0  0  0  0  0  0  0  0  0  0  0
   -9.7885    5.1481   26.5368 C   0  0  0  0  0  0  0  0  0  0  0  0
   -7.0025    1.7046   27.2792 Cl  0  0  0  0  0  0  0  0  0  0  0  0
   -6.9698    6.7737   27.9701 F   0  0  0  0  0  0  0  0  0  0  0  0
   -7.7368    7.4733   26.0768 F   0  0  0  0  0  0  0  0  0  0  0  0
   -8.9843    7.4142   27.8604 F   0  0  0  0  0  0  0  0  0  0  0  0
  -11.8324    3.6384   25.8524 Cl  0  0  0  0  0  0  0  0  0  0  0  0
   -9.9089    1.3945   26.3746 C   0  0  0  0  0  0  0  0  0  0  0  0
  -10.3780    0.6773   27.3839 C   0  0  0  0  0  0  0  0  0  0  0  0
  -10.6602    1.3692   28.7047 C   0  0  0  0  0  0  0  0  0  0  0  0
  -10.7217   -0.6921   27.3073 C   0  0  0  0  0  0  0  0  0  0  0  0
  -10.1027   -1.4399   26.7857 C   0  0  0  0  0  0  0  0  0  0  0  0
  -10.4780   -2.8935   26.6587 C   0  0  0  0  0  0  0  0  0  0  0  0
  -11.6161   -3.2619   27.3049 C   0  0  0  0  0  0  0  0  0  0  0  0
  -12.3658   -2.3669   28.0110 C   0  0  0  0  0  0  0  0  0  0  0  0
  -11.9659   -1.0606   28.1063 C   0  0  0  0  0  0  0  0  0  0  0  0
  3  4  1  0
  2  8  1  0
  4  9  1  0
  4 10  1  0
  4 11  1  0
  6 12  1  0
  5 13  1  0
 13 14  2  3
 14 15  1  0
 14 16  1  0
  1  2  2  0
  2  5  1  0
  5  6  2  0
  6  7  1  0
  7  3  2  0
  3  1  1  0
 16 17  2  0
 17 18  1  0
 18 19  2  0
 19 20  1  0
 20 21  2  0
 21 16  1  0
M  END
$$$$
