No_2877-complexes_sdf/6BKW-FPZ/2024-09-17-14-21-01/
     RDKit          3D

 22 24  0  0  0  0  0  0  0  0999 V2000
   -7.2496    3.8871   27.4508 C   0  0  0  0  0  0  0  0  0  0  0  0
   -7.6161    2.7143   27.1523 C   0  0  0  0  0  0  0  0  0  0  0  0
   -6.9719    1.5838   27.5324 C   0  0  0  0  0  0  0  0  0  0  0  0
   -5.6316    1.7305   27.9933 C   0  0  0  0  0  0  0  0  0  0  0  0
   -8.0192    5.1128   27.1337 C   0  0  0  0  0  0  0  0  0  0  0  0
   -7.6458    6.4118   27.6522 C   0  0  0  0  0  0  0  0  0  0  0  0
   -5.1543    3.0624   28.1404 C   0  0  0  0  0  0  0  0  0  0  0  0
   -5.8790    4.1175   27.8966 C   0  0  0  0  0  0  0  0  0  0  0  0
   -9.1109    5.0347   26.2515 C   0  0  0  0  0  0  0  0  0  0  0  0
   -8.4149    7.5116   27.2581 C   0  0  0  0  0  0  0  0  0  0  0  0
   -4.7528    0.6034   28.2755 C   0  0  0  0  0  0  0  0  0  0  0  0
   -5.2600   -0.0884   29.0652 F   0  0  0  0  0  0  0  0  0  0  0  0
   -3.6159    1.1439   28.8822 F   0  0  0  0  0  0  0  0  0  0  0  0
   -4.3698   -0.0034   27.1618 F   0  0  0  0  0  0  0  0  0  0  0  0
   -9.5561    6.2064   25.5843 C   0  0  0  0  0  0  0  0  0  0  0  0
   -9.2831    7.4319   26.1792 C   0  0  0  0  0  0  0  0  0  0  0  0
   -7.4556    0.2436   27.3005 C   0  0  0  0  0  0  0  0  0  0  0  0
   -8.7802    0.1156   27.0928 C   0  0  0  0  0  0  0  0  0  0  0  0
   -9.4020   -1.1909   27.0289 C   0  0  0  0  0  0  0  0  0  0  0  0
   -8.5873   -2.2476   27.2886 C   0  0  0  0  0  0  0  0  0  0  0  0
   -7.2403   -2.1657   27.5182 C   0  0  0  0  0  0  0  0  0  0  0  0
   -6.6941   -0.9091   27.5709 C   0  0  0  0  0  0  0  0  0  0  0  0
  1  5  1  0
  4 11  1  0
 11 12  1  0
 11 13  1  0
 11 14  1  0
  3 17  1  0
 17 18  2  0
 18 19  1  0
 19 20  2  0
 20 21  1  0
 21 22  2  0
 22 17  1  0
  1  2  2  0
  2  3  1  0
  3  4  2  0
  4  7  1  0
  7  8  2  0
  8  1  1  0
  5  6  2  0
  6 10  1  0
 10 16  2  0
 16 15  1  0
 15  9  2  0
  9  5  1  0
M  END
$$$$
