No_2021-complexes_sdf/6BKW-FPZ/2024-09-17-14-21-01/
     RDKit          3D

 35 38  0  0  0  0  0  0  0  0999 V2000
   -7.9040    3.9820   27.1177 C   0  0  0  0  0  0  0  0  0  0  0  0
   -7.8663    4.8694   27.9238 C   0  0  0  0  0  0  0  0  0  0  0  0
   -9.0501    3.8017   26.2617 C   0  0  0  0  0  0  0  0  0  0  0  0
  -10.0189    4.7608   26.3707 C   0  0  0  0  0  0  0  0  0  0  0  0
   -8.6973    5.9722   27.8968 C   0  0  0  0  0  0  0  0  0  0  0  0
   -9.8216    5.8946   27.1241 C   0  0  0  0  0  0  0  0  0  0  0  0
   -9.1704    2.4454   25.2686 Cl  0  0  0  0  0  0  0  0  0  0  0  0
   -6.9878    2.9153   27.1222 O   0  0  0  0  0  0  0  0  0  0  0  0
   -7.3347    1.6005   27.1644 C   0  0  0  0  0  0  0  0  0  0  0  0
   -6.1394    0.8237   27.1253 C   0  0  0  0  0  0  0  0  0  0  0  0
   -5.0447    1.2890   27.9408 C   0  0  0  0  0  0  0  0  0  0  0  0
   -3.8734    0.5037   28.0949 C   0  0  0  0  0  0  0  0  0  0  0  0
   -3.6813   -0.5960   27.3533 C   0  0  0  0  0  0  0  0  0  0  0  0
   -4.7366   -1.0363   26.5155 C   0  0  0  0  0  0  0  0  0  0  0  0
   -5.9281   -0.3264   26.4577 C   0  0  0  0  0  0  0  0  0  0  0  0
   -2.4449   -1.3624   27.4881 C   0  0  0  0  0  0  0  0  0  0  0  0
   -1.5485   -0.7550   28.0410 N   0  0  0  0  0  0  0  0  0  0  0  0
   -2.2878   -2.4263   26.9075 O   0  0  0  0  0  0  0  0  0  0  0  0
   -0.1546   -1.4131   28.2958 C   0  0  0  0  0  0  0  0  0  0  0  0
    0.4875   -1.4972   27.3816 C   0  0  0  0  0  0  0  0  0  0  0  0
    0.9347   -2.8376   27.1170 C   0  0  0  0  0  0  0  0  0  0  0  0
    1.6375   -3.1149   25.8812 C   0  0  0  0  0  0  0  0  0  0  0  0
    2.0973   -4.3603   25.5485 C   0  0  0  0  0  0  0  0  0  0  0  0
    2.5482   -4.6269   24.2432 C   0  0  0  0  0  0  0  0  0  0  0  0
    2.3007   -5.2083   23.4391 C   0  0  0  0  0  0  0  0  0  0  0  0
    2.8238   -5.2437   22.0589 C   0  0  0  0  0  0  0  0  0  0  0  0
    4.0414   -4.6042   21.9177 C   0  0  0  0  0  0  0  0  0  0  0  0
    4.5996   -3.8600   22.9476 C   0  0  0  0  0  0  0  0  0  0  0  0
    3.9359   -3.7770   24.1528 C   0  0  0  0  0  0  0  0  0  0  0  0
    1.8565   -5.4453   26.4053 C   0  0  0  0  0  0  0  0  0  0  0  0
    1.1343   -5.1274   27.6390 C   0  0  0  0  0  0  0  0  0  0  0  0
    0.7811   -3.8885   27.9560 C   0  0  0  0  0  0  0  0  0  0  0  0
    5.8626   -3.1233   22.7892 C   0  0  0  0  0  0  0  0  0  0  0  0
    5.9317   -2.2463   21.8752 O   0  0  0  0  0  0  0  0  0  0  0  0
    6.7043   -3.0419   23.8235 O   0  0  0  0  0  0  0  0  0  0  0  0
  3  7  1  0
  1  8  1  0
  8  9  1  0
  9 10  1  0
 13 16  1  0
 16 17  1  0
 16 18  2  0
 17 19  1  0
 19 20  1  0
 23 24  1  0
 28 33  1  0
 33 34  2  0
 33 35  1  0
 20 21  1  0
 24 25  2  0
 25 26  1  0
 26 27  2  0
 27 28  1  0
 28 29  2  0
 29 24  1  0
 21 22  2  0
 22 23  1  0
 23 30  2  0
 30 31  1  0
 31 32  2  0
 32 21  1  0
  1  2  2  0
  2  5  1  0
  5  6  2  0
  6  4  1  0
  4  3  2  0
  3  1  1  0
 10 11  2  0
 11 12  1  0
 12 13  2  0
 13 14  1  0
 14 15  2  0
 15 10  1  0
M  END
$$$$
