No_2708-complexes_sdf/6BKW-FPZ/2024-09-17-14-21-01/
     RDKit          3D

 39 41  0  0  0  0  0  0  0  0999 V2000
   -7.2496    3.8871   27.4508 C   0  0  0  0  0  0  0  0  0  0  0  0
   -7.6161    2.7143   27.1523 C   0  0  0  0  0  0  0  0  0  0  0  0
   -8.6212    2.2239   26.4074 C   0  0  0  0  0  0  0  0  0  0  0  0
   -8.2540    4.9237   27.1711 C   0  0  0  0  0  0  0  0  0  0  0  0
   -9.3729    4.5806   26.4433 C   0  0  0  0  0  0  0  0  0  0  0  0
   -8.9160    0.9340   26.0822 C   0  0  0  0  0  0  0  0  0  0  0  0
   -9.6005    3.2666   26.0852 C   0  0  0  0  0  0  0  0  0  0  0  0
   -7.9109    6.3338   27.5235 C   0  0  0  0  0  0  0  0  0  0  0  0
   -9.2858    0.5611   24.9908 C   0  0  0  0  0  0  0  0  0  0  0  0
   -9.5457    1.5950   23.9676 C   0  0  0  0  0  0  0  0  0  0  0  0
   -9.6468    2.7968   24.1278 C   0  0  0  0  0  0  0  0  0  0  0  0
  -10.1387    4.0233   24.1102 C   0  0  0  0  0  0  0  0  0  0  0  0
  -10.9703    3.0302   26.5320 C   0  0  0  0  0  0  0  0  0  0  0  0
   -8.7916    7.2799   27.2003 O   0  0  0  0  0  0  0  0  0  0  0  0
  -11.1070    3.0855   28.0090 C   0  0  0  0  0  0  0  0  0  0  0  0
  -10.7491    3.9612   28.8147 C   0  0  0  0  0  0  0  0  0  0  0  0
  -11.8924    1.8302   28.3929 C   0  0  0  0  0  0  0  0  0  0  0  0
   -6.9930    6.5993   28.3905 O   0  0  0  0  0  0  0  0  0  0  0  0
  -10.8772    4.8011   22.9903 C   0  0  0  0  0  0  0  0  0  0  0  0
  -11.7133    4.1632   22.1530 C   0  0  0  0  0  0  0  0  0  0  0  0
  -12.3976    4.1079   21.3532 C   0  0  0  0  0  0  0  0  0  0  0  0
   -9.8669    5.0627   25.1833 C   0  0  0  0  0  0  0  0  0  0  0  0
   -8.8601    3.0586   23.4400 F   0  0  0  0  0  0  0  0  0  0  0  0
  -13.3962    3.4429   20.4931 C   0  0  0  0  0  0  0  0  0  0  0  0
  -11.3830    0.6595   28.2039 C   0  0  0  0  0  0  0  0  0  0  0  0
  -12.0276   -0.5181   28.7128 C   0  0  0  0  0  0  0  0  0  0  0  0
  -13.1952   -0.3546   29.4633 C   0  0  0  0  0  0  0  0  0  0  0  0
  -13.0426    2.0607   29.1719 C   0  0  0  0  0  0  0  0  0  0  0  0
  -13.7070    0.9697   29.6957 C   0  0  0  0  0  0  0  0  0  0  0  0
  -13.7887    4.0426   19.4355 C   0  0  0  0  0  0  0  0  0  0  0  0
  -12.9948    4.8231   18.7383 C   0  0  0  0  0  0  0  0  0  0  0  0
  -11.7578    5.2017   19.2016 C   0  0  0  0  0  0  0  0  0  0  0  0
  -11.4471    4.8850   20.5013 C   0  0  2  0  0  0  0  0  0  0  0  0
   -9.8468    5.7193   20.9764 Cl  0  0  0  0  0  0  0  0  0  0  0  0
  -10.1507    5.3302   20.5004 C   0  0  2  0  0  0  0  0  0  0  0  0
   -9.6695    4.6418   19.3595 F   0  0  0  0  0  0  0  0  0  0  0  0
  -10.4709    4.5926   19.8025 C   0  0  0  0  0  0  0  0  0  0  0  0
  -10.5291    3.2641   19.4013 F   0  0  0  0  0  0  0  0  0  0  0  0
  -10.7074    4.1200   18.9536 F   0  0  0  0  0  0  0  0  0  0  0  0
  3  6  1  0
  4  8  1  0
  6  9  2  3
  9 10  1  0
 10 11  2  3
 11 12  1  0
  7 13  1  0
  8 14  2  0
 13 15  1  0
 15 16  2  0
 15 17  1  0
  8 18  1  0
 12 19  2  3
 19 20  1  0
 20 21  3  0
  5 22  1  0
 12 22  1  0
 11 23  1  0
 21 24  1  0
 24 30  2  3
 30 31  1  0
 31 32  2  3
 32 33  1  0
 33 34  1  1
 33 35  1  0
 35 36  1  6
 35 37  1  0
 37 38  1  0
 37 39  1  0
 17 25  2  0
 25 26  1  0
 26 27  2  0
 27 29  1  0
 29 28  2  0
 28 17  1  0
  1  2  2  0
  2  3  1  0
  3  7  2  0
  7  5  1  0
  5  4  2  0
  4  1  1  0
M  END
$$$$
