No_2340-complexes_sdf/6BKW-FPZ/2024-09-17-14-21-01/
     RDKit          3D

 40 44  0  0  0  0  0  0  0  0999 V2000
   -7.2496    3.8871   27.4508 C   0  0  0  0  0  0  0  0  0  0  0  0
   -7.6161    2.7143   27.1523 C   0  0  0  0  0  0  0  0  0  0  0  0
   -8.6212    2.2239   26.4073 C   0  0  0  0  0  0  0  0  0  0  0  0
   -8.2540    4.9237   27.1711 C   0  0  0  0  0  0  0  0  0  0  0  0
   -8.0299    6.2902   27.5026 C   0  0  0  0  0  0  0  0  0  0  0  0
   -9.4433    4.5560   26.5450 C   0  0  0  0  0  0  0  0  0  0  0  0
   -9.6358    3.2653   26.1683 C   0  0  0  0  0  0  0  0  0  0  0  0
   -8.8850    7.3458   27.0379 C   0  0  0  0  0  0  0  0  0  0  0  0
   -6.5379    1.5662   27.5125 C   0  0  0  0  0  0  0  0  0  0  0  0
   -6.7781    0.1893   27.4503 C   0  0  0  0  0  0  0  0  0  0  0  0
   -5.8862   -0.6767   27.8657 C   0  0  0  0  0  0  0  0  0  0  0  0
   -4.6885   -0.2186   28.5159 C   0  0  0  0  0  0  0  0  0  0  0  0
   -4.4706    1.1430   28.6108 C   0  0  0  0  0  0  0  0  0  0  0  0
   -5.3332    2.0117   28.1831 C   0  0  0  0  0  0  0  0  0  0  0  0
  -10.8030    2.8596   25.3811 C   0  0  0  0  0  0  0  0  0  0  0  0
  -10.6961    2.6687   24.0725 C   0  0  0  0  0  0  0  0  0  0  0  0
  -11.8231    2.3467   23.2440 C   0  0  0  0  0  0  0  0  0  0  0  0
  -11.6232    2.1293   21.8660 C   0  0  0  0  0  0  0  0  0  0  0  0
  -10.3194    2.3047   21.2900 C   0  0  0  0  0  0  0  0  0  0  0  0
   -9.2715    2.5671   22.1041 C   0  0  0  0  0  0  0  0  0  0  0  0
   -9.4014    2.7562   23.4227 C   0  0  0  0  0  0  0  0  0  0  0  0
  -12.0383    2.8650   26.1016 C   0  0  0  0  0  0  0  0  0  0  0  0
  -12.5712    1.9658   26.5975 C   0  0  0  0  0  0  0  0  0  0  0  0
  -13.8217    1.9877   27.3335 C   0  0  0  0  0  0  0  0  0  0  0  0
  -14.4612    3.2214   27.4239 C   0  0  0  0  0  0  0  0  0  0  0  0
  -13.9175    4.3507   26.8224 C   0  0  0  0  0  0  0  0  0  0  0  0
  -12.7030    4.2763   26.1735 C   0  0  0  0  0  0  0  0  0  0  0  0
   -3.7278   -1.2532   29.0259 C   0  0  1  0  0  0  0  0  0  0  0  0
   -3.1944   -2.0002   28.3215 C   0  0  0  0  0  0  0  0  0  0  0  0
   -3.4652   -1.1511   30.4668 C   0  0  0  0  0  0  0  0  0  0  0  0
   -3.7138   -0.3694   31.2270 N   0  0  0  0  0  0  0  0  0  0  0  0
   -3.3098   -0.4078   32.5814 C   0  0  0  0  0  0  0  0  0  0  0  0
   -2.9401   -2.4022   30.9139 N   0  0  0  0  0  0  0  0  0  0  0  0
   -2.5347   -2.5754   32.2188 C   0  0  0  0  0  0  0  0  0  0  0  0
   -2.7478   -1.5518   33.0704 N   0  0  0  0  0  0  0  0  0  0  0  0
   -2.3288   -1.5793   34.4726 C   0  0  0  0  0  0  0  0  0  0  0  0
   -1.1462   -1.0030   34.8137 C   0  0  0  0  0  0  0  0  0  0  0  0
   -0.4515   -0.4976   33.9742 O   0  0  0  0  0  0  0  0  0  0  0  0
   -0.7640   -0.9052   36.1490 N   0  0  0  0  0  0  0  0  0  0  0  0
   -1.4837   -1.4480   37.2408 C   0  0  0  0  0  0  0  0  0  0  0  0
  4  5  1  0
  5  8  2  0
  2  9  1  0
  7 15  1  0
 15 22  1  0
 12 28  1  0
 28 29  1  6
 28 30  1  0
 30 31  1  0
 30 33  1  0
 33 34  1  0
 32 35  1  0
 34 35  1  0
 35 36  1  0
 36 37  1  0
 37 38  2  0
 37 39  1  0
 39 40  1  0
 15 16  1  0
 32 31  1  0
 22 23  2  0
 23 24  1  0
 24 25  2  0
 25 26  1  0
 26 27  2  0
 27 22  1  0
  9 10  2  0
 10 11  1  0
 11 12  2  0
 12 13  1  0
 13 14  2  0
 14  9  1  0
  1  2  2  0
  2  3  1  0
  3  7  2  0
  7  6  1  0
  6  4  2  0
  4  1  1  0
 16 17  2  0
 17 18  1  0
 18 19  2  0
 19 20  1  0
 20 21  2  0
 21 16  1  0
M  END
$$$$
