No_2279-complexes_sdf/6BKW-FPZ/2024-09-17-14-21-01/
     RDKit          3D

 27 29  0  0  0  0  0  0  0  0999 V2000
   -7.7129    4.2099   27.0854 C   0  0  0  0  0  0  0  0  0  0  0  0
   -8.2112    3.0637   26.9225 C   0  0  0  0  0  0  0  0  0  0  0  0
   -8.5108    5.3904   26.9436 C   0  0  0  0  0  0  0  0  0  0  0  0
   -9.7256    5.1955   26.3518 C   0  0  0  0  0  0  0  0  0  0  0  0
   -9.4995    2.8258   26.4878 C   0  0  0  0  0  0  0  0  0  0  0  0
  -10.2542    3.9691   26.2055 C   0  0  0  0  0  0  0  0  0  0  0  0
   -7.9135    6.7086   27.1885 C   0  0  0  0  0  0  0  0  0  0  0  0
   -7.0292    1.7065   27.3385 Cl  0  0  0  0  0  0  0  0  0  0  0  0
   -8.6020    7.7814   26.8039 N   0  0  0  0  0  0  0  0  0  0  0  0
   -6.8253    6.7776   27.7977 O   0  0  0  0  0  0  0  0  0  0  0  0
   -9.9447    1.4207   26.2788 C   0  0  0  0  0  0  0  0  0  0  0  0
  -10.8583    0.9906   27.0750 C   0  0  0  0  0  0  0  0  0  0  0  0
  -11.3410   -0.3894   27.0543 C   0  0  0  0  0  0  0  0  0  0  0  0
  -10.7544   -1.1978   26.1270 C   0  0  0  0  0  0  0  0  0  0  0  0
   -9.2984    0.4229   25.4455 C   0  0  0  0  0  0  0  0  0  0  0  0
   -9.7404   -0.7734   25.3167 C   0  0  0  0  0  0  0  0  0  0  0  0
  -11.1945   -2.4950   26.0171 F   0  0  0  0  0  0  0  0  0  0  0  0
  -11.4440    3.8223   25.7099 F   0  0  0  0  0  0  0  0  0  0  0  0
  -12.2919   -0.8404   27.9133 O   0  0  0  0  0  0  0  0  0  0  0  0
  -13.5103   -0.5168   27.7948 C   0  0  0  0  0  0  0  0  0  0  0  0
  -14.1910   -0.3052   28.9051 C   0  0  0  0  0  0  0  0  0  0  0  0
  -15.4603    0.2883   28.8973 C   0  0  0  0  0  0  0  0  0  0  0  0
  -16.1419    0.6812   30.0712 C   0  0  0  0  0  0  0  0  0  0  0  0
  -15.5323    0.4016   31.3300 C   0  0  0  0  0  0  0  0  0  0  0  0
  -14.2810   -0.1926   31.3900 C   0  0  0  0  0  0  0  0  0  0  0  0
  -13.6218   -0.4578   30.2546 C   0  0  0  0  0  0  0  0  0  0  0  0
  -14.0621   -0.5032   26.6918 O   0  0  0  0  0  0  0  0  0  0  0  0
  3  7  1  0
  2  8  1  0
  7  9  1  0
  7 10  2  0
  5 11  1  0
 14 17  1  0
  6 18  1  0
 13 19  1  0
 19 20  1  0
 20 21  1  0
 20 27  2  0
 11 12  2  0
 12 13  1  0
 13 14  2  0
 14 16  1  0
 16 15  2  0
 15 11  1  0
  1  2  2  0
  2  5  1  0
  5  6  2  0
  6  4  1  0
  4  3  2  0
  3  1  1  0
 21 22  2  0
 22 23  1  0
 23 24  2  0
 24 25  1  0
 25 26  2  0
 26 21  1  0
M  END
$$$$
