No_2970-complexes_sdf/6BKW-FPZ/2024-09-17-14-21-01/
     RDKit          3D

 13 14  0  0  0  0  0  0  0  0999 V2000
   -7.7129    4.2099   27.0854 C   0  0  0  0  0  0  0  0  0  0  0  0
   -8.2112    3.0637   26.9225 C   0  0  0  0  0  0  0  0  0  0  0  0
   -9.4446    2.8304   26.1868 C   0  0  0  0  0  0  0  0  0  0  0  0
   -8.4697    5.3956   26.7238 C   0  0  0  0  0  0  0  0  0  0  0  0
   -9.6172    5.2111   25.9513 C   0  0  0  0  0  0  0  0  0  0  0  0
  -10.0424    3.9782   25.6873 C   0  0  0  0  0  0  0  0  0  0  0  0
   -7.3251    1.9116   27.4398 C   0  0  0  0  0  0  0  0  0  0  0  0
   -5.9764    2.0610   27.5196 C   0  0  0  0  0  0  0  0  0  0  0  0
   -5.2293    0.9942   28.0145 C   0  0  0  0  0  0  0  0  0  0  0  0
   -5.7390   -0.2509   28.2458 C   0  0  0  0  0  0  0  0  0  0  0  0
   -7.8598    0.6035   27.5649 C   0  0  0  0  0  0  0  0  0  0  0  0
   -7.0656   -0.4043   27.9825 C   0  0  0  0  0  0  0  0  0  0  0  0
   -8.0939    6.9964   27.1085 Cl  0  0  0  0  0  0  0  0  0  0  0  0
  2  7  1  0
  4 13  1  0
  7  8  2  0
  8  9  1  0
  9 10  2  0
 10 12  1  0
 12 11  2  0
 11  7  1  0
  1  2  2  0
  2  3  1  0
  3  6  2  0
  6  5  1  0
  5  4  2  0
  4  1  1  0
M  END
$$$$
