No_2612-complexes_sdf/6BKW-FPZ/2024-09-17-14-21-01/
     RDKit          3D

 23 25  0  0  0  0  0  0  0  0999 V2000
   -7.7129    4.2099   27.0854 C   0  0  0  0  0  0  0  0  0  0  0  0
   -7.7814    5.1722   27.8972 C   0  0  0  0  0  0  0  0  0  0  0  0
   -8.8998    3.8713   26.3707 C   0  0  0  0  0  0  0  0  0  0  0  0
   -8.9563    2.6796   25.5490 C   0  0  0  0  0  0  0  0  0  0  0  0
   -8.8131    6.1334   27.9344 C   0  0  0  0  0  0  0  0  0  0  0  0
   -9.9804    5.8121   27.1929 C   0  0  0  0  0  0  0  0  0  0  0  0
   -9.9861    4.6836   26.4532 C   0  0  0  0  0  0  0  0  0  0  0  0
   -9.7711    2.5868   24.5395 N   0  0  0  0  0  0  0  0  0  0  0  0
   -9.7389    1.4718   23.7968 C   0  0  0  0  0  0  0  0  0  0  0  0
   -8.1914    1.5886   25.8519 C   0  0  0  0  0  0  0  0  0  0  0  0
   -8.1918    0.4218   25.1730 C   0  0  0  0  0  0  0  0  0  0  0  0
   -9.0047    0.3949   24.0550 C   0  0  0  0  0  0  0  0  0  0  0  0
  -10.6752    1.4786   22.5984 C   0  0  0  0  0  0  0  0  0  0  0  0
  -10.6883    2.5422   21.8445 C   0  0  0  0  0  0  0  0  0  0  0  0
  -11.2379    2.9793   20.9720 C   0  0  0  0  0  0  0  0  0  0  0  0
  -11.0408    4.2692   20.1835 C   0  0  0  0  0  0  0  0  0  0  0  0
  -10.2770    5.1868   20.8821 C   0  0  0  0  0  0  0  0  0  0  0  0
   -9.8717    4.8941   22.2015 C   0  0  0  0  0  0  0  0  0  0  0  0
  -10.0417    3.7093   22.7520 C   0  0  0  0  0  0  0  0  0  0  0  0
   -9.6585    3.5031   23.9831 N   0  0  0  0  0  0  0  0  0  0  0  0
   -9.5893    4.8246   24.4555 C   0  0  0  0  0  0  0  0  0  0  0  0
   -8.6137    3.8936   23.8605 N   0  0  0  0  0  0  0  0  0  0  0  0
  -10.2629    5.8306   23.7632 C   0  0  0  0  0  0  0  0  0  0  0  0
  3  4  1  0
  9 13  1  0
 19 20  1  0
 20 21  1  0
 20 22  1  0
 21 23  1  0
 13 14  1  0
  4  8  2  0
  8  9  1  0
  9 12  2  0
 12 11  1  0
 11 10  2  0
 10  4  1  0
  1  2  2  0
  2  5  1  0
  5  6  2  0
  6  7  1  0
  7  3  2  0
  3  1  1  0
 14 15  2  0
 15 16  1  0
 16 17  2  0
 17 18  1  0
 18 19  2  0
 19 14  1  0
M  END
$$$$
