No_2773-complexes_sdf/6BKW-FPZ/2024-09-17-14-21-01/
     RDKit          3D

 31 35  0  0  0  0  0  0  0  0999 V2000
   -7.7129    4.2099   27.0854 C   0  0  0  0  0  0  0  0  0  0  0  0
   -8.9133    4.4736   27.0998 C   0  0  0  0  0  0  0  0  0  0  0  0
   -9.4643    5.5426   27.7628 C   0  0  0  0  0  0  0  0  0  0  0  0
   -9.8091    3.6358   26.2841 C   0  0  0  0  0  0  0  0  0  0  0  0
  -10.3717    2.5594   26.9241 C   0  0  0  0  0  0  0  0  0  0  0  0
  -10.3040    2.3353   28.2164 C   0  0  0  0  0  0  0  0  0  0  0  0
   -6.8916    4.9625   27.9930 N   0  0  0  0  0  0  0  0  0  0  0  0
   -8.6453    6.4755   28.4381 C   0  0  0  0  0  0  0  0  0  0  0  0
   -7.2869    6.0274   28.4808 C   0  0  0  0  0  0  0  0  0  0  0  0
  -11.0572    1.5154   26.1165 C   0  0  0  0  0  0  0  0  0  0  0  0
  -11.1380    1.7047   24.8491 C   0  0  0  0  0  0  0  0  0  0  0  0
  -10.4988    2.9231   24.1963 C   0  0  0  0  0  0  0  0  0  0  0  0
   -9.8222    3.8398   24.9361 C   0  0  0  0  0  0  0  0  0  0  0  0
  -10.5963    3.1464   22.7337 C   0  0  0  0  0  0  0  0  0  0  0  0
  -10.7949    4.4118   22.2058 C   0  0  0  0  0  0  0  0  0  0  0  0
  -10.2476    2.1278   21.8347 C   0  0  0  0  0  0  0  0  0  0  0  0
  -10.4794    2.2018   20.5381 C   0  0  0  0  0  0  0  0  0  0  0  0
  -10.9331    4.6393   20.8561 C   0  0  0  0  0  0  0  0  0  0  0  0
  -10.6878    3.5688   19.9779 C   0  0  0  0  0  0  0  0  0  0  0  0
  -11.6825    0.3719   26.6886 C   0  0  0  0  0  0  0  0  0  0  0  0
  -11.7250    0.3501   28.1300 C   0  0  0  0  0  0  0  0  0  0  0  0
  -10.9470    1.2329   28.9293 C   0  0  0  0  0  0  0  0  0  0  0  0
  -12.3260   -0.8148   28.8465 C   0  0  0  0  0  0  0  0  0  0  0  0
  -13.2498   -0.5603   29.6074 O   0  0  0  0  0  0  0  0  0  0  0  0
  -11.9249   -1.9648   28.5507 O   0  0  0  0  0  0  0  0  0  0  0  0
  -11.0498   -2.3527   27.9614 C   0  0  0  0  0  0  0  0  0  0  0  0
   -9.8218   -2.4639   28.5541 C   0  0  0  0  0  0  0  0  0  0  0  0
   -8.5915   -2.4220   27.8373 C   0  0  0  0  0  0  0  0  0  0  0  0
   -8.6865   -2.6337   26.4735 C   0  0  0  0  0  0  0  0  0  0  0  0
   -9.9329   -2.5947   25.8556 C   0  0  0  0  0  0  0  0  0  0  0  0
  -11.0601   -2.3530   26.5862 C   0  0  0  0  0  0  0  0  0  0  0  0
  2  4  1  0
 12 14  1  0
 21 23  1  0
 23 24  2  0
 23 25  1  0
 25 26  1  0
  4  5  1  0
 10 11  1  0
 11 12  2  0
 12 13  1  0
 13  4  2  0
  1  2  2  0
  2  3  1  0
  3  8  2  0
  8  9  1  0
  9  7  2  0
  7  1  1  0
 14 15  2  0
 15 18  1  0
 18 19  2  0
 19 17  1  0
 17 16  2  0
 16 14  1  0
 26 27  2  0
 27 28  1  0
 28 29  2  0
 29 30  1  0
 30 31  2  0
 31 26  1  0
  5  6  2  0
  6 22  1  0
 22 21  2  0
 21 20  1  0
 20 10  2  0
 10  5  1  0
M  END
$$$$
