No_2419-complexes_sdf/6BKW-FPZ/2024-09-17-14-21-01/
     RDKit          3D

 24 27  0  0  0  0  0  0  0  0999 V2000
   -7.2496    3.8871   27.4508 C   0  0  1  0  0  0  0  0  0  0  0  0
   -7.9379    4.9063   27.8518 C   0  0  0  0  0  0  0  0  0  0  0  0
   -8.7729    5.5444   27.0168 C   0  0  0  0  0  0  0  0  0  0  0  0
   -6.2858    3.2138   28.3467 C   0  0  0  0  0  0  0  0  0  0  0  0
   -9.2459    4.9714   25.8185 C   0  0  0  0  0  0  0  0  0  0  0  0
   -8.7245    3.6550   25.5132 C   0  0  0  0  0  0  0  0  0  0  0  0
   -9.3037    2.9665   24.5484 C   0  0  0  0  0  0  0  0  0  0  0  0
   -7.8228    3.1447   26.3850 C   0  0  2  0  0  0  0  0  0  0  0  0
   -5.6635    1.9734   27.9657 C   0  0  0  0  0  0  0  0  0  0  0  0
   -9.1121    1.5860   24.4413 C   0  0  0  0  0  0  0  0  0  0  0  0
   -8.2107    0.9919   25.4127 C   0  0  0  0  0  0  0  0  0  0  0  0
   -7.5741    1.7051   26.3099 C   0  0  0  0  0  0  0  0  0  0  0  0
   -6.3858    1.1603   27.0208 C   0  0  0  0  0  0  0  0  0  0  0  0
   -4.5704    1.4391   28.7153 C   0  0  0  0  0  0  0  0  0  0  0  0
   -4.5109    0.3008   29.3520 C   0  0  0  0  0  0  0  0  0  0  0  0
   -3.5923    0.0016   30.3376 C   0  0  0  0  0  0  0  0  0  0  0  0
   -5.5243   -0.7118   29.1357 C   0  0  0  0  0  0  0  0  0  0  0  0
   -5.5218   -1.9012   29.8532 C   0  0  0  0  0  0  0  0  0  0  0  0
   -3.5315   -1.1481   31.0892 C   0  0  0  0  0  0  0  0  0  0  0  0
   -4.5361   -2.1134   30.8428 C   0  0  0  0  0  0  0  0  0  0  0  0
  -10.3907    3.4825   23.6689 C   0  0  0  0  0  0  0  0  0  0  0  0
  -11.4757    3.0735   23.8447 F   0  0  0  0  0  0  0  0  0  0  0  0
   -9.9158    3.4328   22.4010 F   0  0  0  0  0  0  0  0  0  0  0  0
  -10.3886    4.8772   23.6950 F   0  0  0  0  0  0  0  0  0  0  0  0
  1  2  1  1
  2  3  2  0
  1  4  1  0
  3  5  1  0
  5  6  2  0
  6  7  1  0
  1  8  1  0
  8  6  1  1
  4  9  2  0
  7 10  2  0
 10 11  1  0
  8 12  1  0
 11 12  2  0
  9 13  1  0
 12 13  1  0
  9 14  1  0
 14 15  1  0
 15 16  2  0
 15 17  1  0
 17 18  2  0
 16 19  1  0
 18 20  1  0
 19 20  2  0
  7 21  1  0
 21 22  1  0
 21 23  1  0
 21 24  1  0
M  END
$$$$
