No_2105-complexes_sdf/6BKW-FPZ/2024-09-17-14-21-01/
     RDKit          3D

 18 19  0  0  0  0  0  0  0  0999 V2000
   -7.7129    4.2099   27.0854 C   0  0  0  0  0  0  0  0  0  0  0  0
   -8.2112    3.0637   26.9225 C   0  0  0  0  0  0  0  0  0  0  0  0
   -8.5108    5.3904   26.9436 C   0  0  0  0  0  0  0  0  0  0  0  0
   -9.7256    5.1955   26.3518 C   0  0  0  0  0  0  0  0  0  0  0  0
   -9.4995    2.8258   26.4878 C   0  0  0  0  0  0  0  0  0  0  0  0
  -10.2542    3.9691   26.2055 C   0  0  0  0  0  0  0  0  0  0  0  0
   -7.8138    6.9227   27.2348 Cl  0  0  0  0  0  0  0  0  0  0  0  0
   -7.3640    1.8353   27.2492 C   0  0  0  0  0  0  0  0  0  0  0  0
   -6.9883    0.9992   26.8121 N   0  0  0  0  0  0  0  0  0  0  0  0
   -6.0870    0.1612   27.4782 C   0  0  0  0  0  0  0  0  0  0  0  0
   -5.4410    0.9623   28.3681 C   0  0  0  0  0  0  0  0  0  0  0  0
   -6.2565    2.2858   28.2512 N   0  0  0  0  0  0  0  0  0  0  0  0
   -4.3337    0.8781   29.1839 C   0  0  0  0  0  0  0  0  0  0  0  0
   -3.5575   -0.2902   29.0540 C   0  0  1  0  0  0  0  0  0  0  0  0
   -3.1191   -0.6273   27.8829 C   0  0  0  0  0  0  0  0  0  0  0  0
   -3.1060   -0.9708   30.2558 C   0  0  0  0  0  0  0  0  0  0  0  0
   -3.2753   -0.3221   31.2840 F   0  0  0  0  0  0  0  0  0  0  0  0
   -1.7991   -1.2588   30.2047 F   0  0  0  0  0  0  0  0  0  0  0  0
  3  7  1  0
  2  8  1  0
  8  9  2  0
  9 10  1  0
 10 11  2  0
  8 12  1  0
 11 12  1  0
 11 13  1  0
 13 14  1  0
 14 15  1  1
 14 16  1  0
 16 17  1  0
 16 18  1  0
  1  2  2  0
  2  5  1  0
  5  6  2  0
  6  4  1  0
  4  3  2  0
  3  1  1  0
M  END
$$$$
