No_2180-complexes_sdf/6BKW-FPZ/2024-09-17-14-21-01/
     RDKit          3D

 25 28  0  0  0  0  0  0  0  0999 V2000
   -7.2496    3.8871   27.4508 C   0  0  1  0  0  0  0  0  0  0  0  0
   -8.5096    4.0291   27.2770 C   0  0  0  0  0  0  0  0  0  0  0  0
   -9.2677    5.1714   27.5773 C   0  0  0  0  0  0  0  0  0  0  0  0
   -6.5711    2.6400   27.2842 C   0  0  0  0  0  0  0  0  0  0  0  0
   -7.2939    1.5094   27.0532 C   0  0  1  0  0  0  0  0  0  0  0  0
   -8.6122    1.6580   26.7575 C   0  0  0  0  0  0  0  0  0  0  0  0
   -9.2984    2.8495   26.9904 C   0  0  0  0  0  0  0  0  0  0  0  0
   -8.5439    6.4004   27.5644 C   0  0  0  0  0  0  0  0  0  0  0  0
  -10.6456    5.1416   27.8945 C   0  0  0  0  0  0  0  0  0  0  0  0
   -6.5903    0.2717   26.8533 C   0  0  0  0  0  0  0  0  0  0  0  0
   -6.6340   -0.3148   25.8862 O   0  0  0  0  0  0  0  0  0  0  0  0
   -5.8120   -0.1374   28.0010 N   0  0  0  0  0  0  0  0  0  0  0  0
   -5.4726    0.5697   29.1514 C   0  0  0  0  0  0  0  0  0  0  0  0
   -4.6444   -0.2885   30.0487 C   0  0  0  0  0  0  0  0  0  0  0  0
   -4.5281   -1.5520   29.5469 C   0  0  0  0  0  0  0  0  0  0  0  0
   -5.2982   -1.4498   28.2097 C   0  0  0  0  0  0  0  0  0  0  0  0
   -7.2182    6.4466   27.2539 C   0  0  0  0  0  0  0  0  0  0  0  0
   -6.5107    5.2031   27.3988 C   0  0  0  0  0  0  0  0  0  0  0  0
   -3.2351    0.2823   30.2872 C   0  0  0  0  0  0  0  0  0  0  0  0
  -11.4762    3.9824   27.9190 C   0  0  0  0  0  0  0  0  0  0  0  0
  -10.6940    2.7432   27.4521 C   0  0  0  0  0  0  0  0  0  0  0  0
  -11.4302    1.5118   27.4960 C   0  0  0  0  0  0  0  0  0  0  0  0
  -11.9985    1.1233   28.6263 C   0  0  0  0  0  0  0  0  0  0  0  0
  -12.6297    1.9774   29.4042 C   0  0  0  0  0  0  0  0  0  0  0  0
  -13.5654    1.7167   30.3913 C   0  0  0  0  0  0  0  0  0  0  0  0
  1  2  1  0
  2  3  2  0
  1  4  1  6
  4  5  1  0
  5  6  1  0
  2  7  1  0
  6  7  2  0
  3  8  1  0
  3  9  1  0
  5 10  1  6
 10 11  2  0
 10 12  1  0
 12 13  1  0
 13 14  2  0
 14 15  1  0
 12 16  1  0
 15 16  1  0
  8 17  1  0
  1 18  1  0
 17 18  2  0
 14 19  1  0
  9 20  2  0
  7 21  1  0
 20 21  1  0
 21 22  1  0
 22 23  1  0
 23 24  2  3
 24 25  1  0
M  END
$$$$
