No_3904-complexes_sdf/6BKW-FPZ/2024-09-17-14-21-01/
     RDKit          3D

 21 24  0  0  0  0  0  0  0  0999 V2000
   -7.2496    3.8871   27.4508 C   0  0  0  0  0  0  0  0  0  0  0  0
   -7.9379    4.9063   27.8518 C   0  0  1  0  0  0  0  0  0  0  0  0
   -7.5112    6.1898   27.6280 C   0  0  0  0  0  0  0  0  0  0  0  0
   -9.4044    4.7330   27.8015 C   0  0  0  0  0  0  0  0  0  0  0  0
   -7.6918    2.5968   27.9026 C   0  0  1  0  0  0  0  0  0  0  0  0
   -9.0781    2.2804   27.6915 C   0  0  2  0  0  0  0  0  0  0  0  0
   -9.9269    3.4147   28.0700 C   0  0  2  0  0  0  0  0  0  0  0  0
  -11.4031    3.2064   27.9351 C   0  0  0  0  0  0  0  0  0  0  0  0
  -12.1828    4.0718   27.5079 C   0  0  0  0  0  0  0  0  0  0  0  0
  -13.6099    4.1227   27.6621 C   0  0  0  0  0  0  0  0  0  0  0  0
  -11.9455    2.0762   28.6656 C   0  0  0  0  0  0  0  0  0  0  0  0
  -13.3075    1.9990   28.8791 C   0  0  0  0  0  0  0  0  0  0  0  0
  -14.1390    3.0434   28.3169 C   0  0  0  0  0  0  0  0  0  0  0  0
   -6.7856    1.4055   27.5309 C   0  0  0  0  0  0  0  0  0  0  0  0
   -7.1855    0.1670   27.3377 C   0  0  0  0  0  0  0  0  0  0  0  0
   -6.3255   -0.8544   27.3737 C   0  0  0  0  0  0  0  0  0  0  0  0
   -6.7167   -2.1474   27.0836 C   0  0  0  0  0  0  0  0  0  0  0  0
   -8.0303   -2.3438   26.7685 C   0  0  0  0  0  0  0  0  0  0  0  0
   -8.9702   -1.3125   26.7441 C   0  0  0  0  0  0  0  0  0  0  0  0
   -8.5455   -0.0619   27.0040 C   0  0  0  0  0  0  0  0  0  0  0  0
   -9.5198    0.9980   27.4551 C   0  0  0  0  0  0  0  0  0  0  0  0
  1  2  1  0
  2  3  1  6
  2  4  1  0
  5  1  1  6
  5  6  1  0
  4  7  1  0
  6  7  1  0
  7  8  1  6
  5 14  1  0
 14 15  1  0
  6 21  1  1
 20 21  1  0
 15 16  2  0
 16 17  1  0
 17 18  2  0
 18 19  1  0
 19 20  2  0
 20 15  1  0
  8  9  2  0
  9 10  1  0
 10 13  2  0
 13 12  1  0
 12 11  2  0
 11  8  1  0
M  END
$$$$
