No_3258-complexes_sdf/6BKW-FPZ/2024-09-17-14-21-01/
     RDKit          3D

 34 37  0  0  0  0  0  0  0  0999 V2000
   -7.7129    4.2099   27.0854 C   0  0  0  0  0  0  0  0  0  0  0  0
   -8.2112    3.0637   26.9225 C   0  0  0  0  0  0  0  0  0  0  0  0
   -9.5629    2.7997   27.0678 C   0  0  0  0  0  0  0  0  0  0  0  0
   -8.5911    5.3704   27.2036 C   0  0  0  0  0  0  0  0  0  0  0  0
   -9.9544    5.1489   27.1401 C   0  0  0  0  0  0  0  0  0  0  0  0
  -10.4577    3.9280   27.0818 C   0  0  0  0  0  0  0  0  0  0  0  0
   -8.1983    6.7717   27.3757 C   0  0  1  0  0  0  0  0  0  0  0  0
   -7.0009    6.8550   27.8837 F   0  0  0  0  0  0  0  0  0  0  0  0
   -8.7087    7.8261   26.7102 C   0  0  0  0  0  0  0  0  0  0  0  0
  -10.1017    1.3983   26.9793 C   0  0  0  0  0  0  0  0  0  0  0  0
   -9.1798    0.4359   27.1430 C   0  0  0  0  0  0  0  0  0  0  0  0
   -9.6235   -0.9229   27.2153 C   0  0  0  0  0  0  0  0  0  0  0  0
   -8.6830   -1.9732   27.3811 C   0  0  0  0  0  0  0  0  0  0  0  0
   -7.3208   -1.6247   27.4773 C   0  0  0  0  0  0  0  0  0  0  0  0
   -6.8872   -0.3369   27.4155 C   0  0  0  0  0  0  0  0  0  0  0  0
   -7.7455    0.6628   27.3020 C   0  0  0  0  0  0  0  0  0  0  0  0
   -7.3300    2.0888   27.1491 C   0  0  0  0  0  0  0  0  0  0  0  0
  -11.7452    1.1588   27.0741 Cl  0  0  0  0  0  0  0  0  0  0  0  0
   -5.2018    0.0149   27.5183 Cl  0  0  0  0  0  0  0  0  0  0  0  0
   -9.1351   -3.3391   27.5646 C   0  0  0  0  0  0  0  0  0  0  0  0
   -9.2456   -3.9703   28.5004 O   0  0  0  0  0  0  0  0  0  0  0  0
   -9.5548   -3.8618   26.3531 O   0  0  0  0  0  0  0  0  0  0  0  0
   -9.3910   -3.7199   25.2988 C   0  0  0  0  0  0  0  0  0  0  0  0
   -8.3021   -4.1571   24.6979 C   0  0  0  0  0  0  0  0  0  0  0  0
   -7.9572   -3.7862   23.3179 C   0  0  0  0  0  0  0  0  0  0  0  0
   -8.8077   -2.9473   22.6260 C   0  0  0  0  0  0  0  0  0  0  0  0
   -9.9570   -2.4458   23.2273 C   0  0  0  0  0  0  0  0  0  0  0  0
  -10.2086   -2.7442   24.5407 C   0  0  0  0  0  0  0  0  0  0  0  0
  -10.8229   -1.5335   22.4700 C   0  0  0  0  0  0  0  0  0  0  0  0
  -10.9141   -0.2763   22.8655 C   0  0  0  0  0  0  0  0  0  0  0  0
  -10.1027    0.3999   23.3682 C   0  0  0  0  0  0  0  0  0  0  0  0
  -10.2181    1.8729   23.6936 C   0  0  0  0  0  0  0  0  0  0  0  0
  -11.4050    2.4528   23.4423 C   0  0  0  0  0  0  0  0  0  0  0  0
  -11.5998    3.8180   23.7648 C   0  0  0  0  0  0  0  0  0  0  0  0
  4  7  1  0
  7  8  1  0
  7  9  1  6
 10 18  1  0
 15 19  1  0
 13 20  1  0
 20 21  2  0
 20 22  1  0
 22 23  1  0
 27 29  1  0
 29 30  1  0
 30 31  2  3
 31 32  1  0
 32 33  2  3
 33 34  1  0
 11 12  1  0
 12 13  2  0
 13 14  1  0
 14 15  2  0
 15 16  1  0
  3 10  1  0
 10 11  2  0
 11 16  1  0
 16 17  2  0
 17  2  1  0
  1  2  2  0
  2  3  1  0
  3  6  2  0
  6  5  1  0
  5  4  2  0
  4  1  1  0
 23 24  2  0
 24 25  1  0
 25 26  2  0
 26 27  1  0
 27 28  2  0
 28 23  1  0
M  END
$$$$
