No_343-complexes_sdf/6BKW-FPZ/2024-09-17-14-21-01/
     RDKit          3D

 18 19  0  0  0  0  0  0  0  0999 V2000
   -7.7129    4.2099   27.0854 C   0  0  0  0  0  0  0  0  0  0  0  0
   -8.2112    3.0637   26.9225 C   0  0  0  0  0  0  0  0  0  0  0  0
   -8.5108    5.3904   26.9436 C   0  0  0  0  0  0  0  0  0  0  0  0
   -9.7256    5.1955   26.3518 C   0  0  0  0  0  0  0  0  0  0  0  0
   -9.4995    2.8258   26.4878 C   0  0  0  0  0  0  0  0  0  0  0  0
  -10.2542    3.9691   26.2055 C   0  0  0  0  0  0  0  0  0  0  0  0
   -7.9135    6.7086   27.1885 C   0  0  0  0  0  0  0  0  0  0  0  0
   -7.4198    1.9045   27.2408 N   0  0  0  0  0  0  0  0  0  0  0  0
   -6.1458    2.0376   27.7479 C   0  0  0  0  0  0  0  0  0  0  0  0
   -5.3095    0.7683   27.7127 C   0  0  0  0  0  0  0  0  0  0  0  0
   -6.0023   -0.3482   27.4302 C   0  0  0  0  0  0  0  0  0  0  0  0
   -7.5760    0.5138   26.9375 C   0  0  0  0  0  0  0  0  0  0  0  0
   -8.5678    7.7830   26.8551 O   0  0  0  0  0  0  0  0  0  0  0  0
   -6.9686    6.8485   28.1146 O   0  0  0  0  0  0  0  0  0  0  0  0
   -3.9726    0.7441   28.3149 C   0  0  0  0  0  0  0  0  0  0  0  0
   -3.8519    0.9578   29.4818 O   0  0  0  0  0  0  0  0  0  0  0  0
   -2.9665    0.4544   27.4831 N   0  0  0  0  0  0  0  0  0  0  0  0
   -3.0130    0.2358   26.0709 C   0  0  0  0  0  0  0  0  0  0  0  0
  3  7  1  0
  2  8  1  0
  8  9  1  0
  9 10  2  0
 10 11  1  0
  8 12  1  0
 11 12  2  0
  7 13  2  0
  7 14  1  0
 10 15  1  0
 15 16  1  0
 15 17  1  0
 17 18  1  0
  1  2  2  0
  2  5  1  0
  5  6  2  0
  6  4  1  0
  4  3  2  0
  3  1  1  0
M  END
$$$$
