No_3474-complexes_sdf/6BKW-FPZ/2024-09-17-14-21-01/
     RDKit          3D

 19 20  0  0  0  0  0  0  0  0999 V2000
   -7.9040    3.9820   27.1177 C   0  0  2  0  0  0  0  0  0  0  0  0
   -9.0711    4.3164   27.0630 C   0  0  0  0  0  0  0  0  0  0  0  0
   -9.8698    3.9665   25.9494 C   0  0  0  0  0  0  0  0  0  0  0  0
   -7.0332    4.5030   28.2025 C   0  0  0  0  0  0  0  0  0  0  0  0
   -9.4357    2.9501   25.1393 C   0  0  0  0  0  0  0  0  0  0  0  0
  -10.2810    2.6266   24.0411 C   0  0  0  0  0  0  0  0  0  0  0  0
   -7.7787    5.4357   28.8257 N   0  0  0  0  0  0  0  0  0  0  0  0
   -9.0362    5.3819   28.0762 C   0  0  2  0  0  0  0  0  0  0  0  0
  -10.1384    6.1399   28.2572 N   0  0  0  0  0  0  0  0  0  0  0  0
   -9.9386    5.3844   28.5825 Cl  0  0  0  0  0  0  0  0  0  0  0  0
   -9.0568    2.8824   27.6977 Cl  0  0  0  0  0  0  0  0  0  0  0  0
  -11.1275    3.5739   23.4857 C   0  0  0  0  0  0  0  0  0  0  0  0
  -11.9038    3.2783   22.3733 C   0  0  0  0  0  0  0  0  0  0  0  0
  -11.7076    2.0651   21.7326 C   0  0  0  0  0  0  0  0  0  0  0  0
  -10.2192    1.4366   23.2070 C   0  0  0  0  0  0  0  0  0  0  0  0
  -10.8539    1.1835   22.1266 C   0  0  0  0  0  0  0  0  0  0  0  0
   -9.6171    7.0126   27.1359 C   0  0  0  0  0  0  0  0  0  0  0  0
   -7.2008    3.3033   26.2028 O   0  0  0  0  0  0  0  0  0  0  0  0
   -7.9715    2.2483   25.6136 C   0  0  0  0  0  0  0  0  0  0  0  0
  1  2  1  0
  2  3  2  0
  1  4  1  0
  3  5  1  0
  5  6  1  0
  4  7  2  3
  7  8  1  0
  8  9  1  0
  8 10  1  1
  2 11  1  0
  9 17  1  0
  1 18  1  6
  5 19  1  0
 18 19  1  0
  6 12  2  0
 12 13  1  0
 13 14  2  0
 14 16  1  0
 16 15  2  0
 15  6  1  0
M  END
$$$$
