No_3397-complexes_sdf/6BKW-FPZ/2024-09-17-14-21-01/
     RDKit          3D

 33 35  0  0  0  0  0  0  0  0999 V2000
   -7.9040    3.9820   27.1177 C   0  0  0  0  0  0  0  0  0  0  0  0
   -7.8663    4.8694   27.9238 C   0  0  0  0  0  0  0  0  0  0  0  0
   -7.4698    2.6989   27.4277 C   0  0  0  0  0  0  0  0  0  0  0  0
   -6.1691    2.6024   27.7920 C   0  0  0  0  0  0  0  0  0  0  0  0
   -8.5263    6.1540   27.6333 C   0  0  0  0  0  0  0  0  0  0  0  0
   -5.5598    1.3280   28.1204 C   0  0  0  0  0  0  0  0  0  0  0  0
   -6.2761    0.1892   27.8802 C   0  0  0  0  0  0  0  0  0  0  0  0
   -8.0490    1.4235   27.0986 C   0  0  0  0  0  0  0  0  0  0  0  0
   -9.4357    1.5058   26.5815 C   0  0  0  0  0  0  0  0  0  0  0  0
   -7.5022    0.2513   27.3389 C   0  0  0  0  0  0  0  0  0  0  0  0
  -10.4676    1.6073   27.4087 C   0  0  0  0  0  0  0  0  0  0  0  0
   -8.6140    4.2658   25.9095 C   0  0  0  0  0  0  0  0  0  0  0  0
   -9.2969    5.4604   25.6163 C   0  0  0  0  0  0  0  0  0  0  0  0
   -9.1833    6.4955   26.5705 C   0  0  0  0  0  0  0  0  0  0  0  0
  -11.8224    1.6354   27.0705 C   0  0  0  0  0  0  0  0  0  0  0  0
  -12.0803    1.6067   25.7179 C   0  0  0  0  0  0  0  0  0  0  0  0
   -9.8490    1.4875   25.2325 C   0  0  0  0  0  0  0  0  0  0  0  0
  -11.0694    1.5397   24.8002 C   0  0  0  0  0  0  0  0  0  0  0  0
   -4.2979    1.3211   28.5926 F   0  0  0  0  0  0  0  0  0  0  0  0
  -11.3736    1.5350   23.3434 C   0  0  0  0  0  0  0  0  0  0  0  0
  -11.7980    2.3117   22.7680 O   0  0  0  0  0  0  0  0  0  0  0  0
  -11.1822    0.1842   22.8057 O   0  0  0  0  0  0  0  0  0  0  0  0
  -12.9056    1.7357   28.0704 C   0  0  0  0  0  0  0  0  0  0  0  0
  -13.3039    2.6233   28.7036 O   0  0  0  0  0  0  0  0  0  0  0  0
  -13.4407    0.4839   28.3194 O   0  0  0  0  0  0  0  0  0  0  0  0
   -8.1828   -1.0412   27.0831 C   0  0  0  0  0  0  0  0  0  0  0  0
   -7.9754   -1.6593   25.9334 C   0  0  0  0  0  0  0  0  0  0  0  0
   -6.9473   -1.3470   25.0492 C   0  0  0  0  0  0  0  0  0  0  0  0
   -6.8548   -1.8968   23.7114 C   0  0  0  0  0  0  0  0  0  0  0  0
   -5.9209   -1.4474   22.8157 C   0  0  0  0  0  0  0  0  0  0  0  0
   -5.9749   -1.9710   21.5533 C   0  0  0  0  0  0  0  0  0  0  0  0
   -6.9405   -2.8860   21.0892 C   0  0  0  0  0  0  0  0  0  0  0  0
   -7.9149   -3.2856   22.0558 C   0  0  0  0  0  0  0  0  0  0  0  0
  1  3  1  0
  8  9  1  0
  6 19  1  0
 18 20  1  0
 20 21  2  0
 20 22  1  0
 15 23  1  0
 23 24  2  0
 23 25  1  0
 10 26  1  0
 26 27  2  3
 27 28  1  0
 28 29  2  3
 29 30  1  0
 30 31  2  3
 31 32  1  0
 32 33  2  0
  1  2  2  0
  2  5  1  0
  5 14  2  0
 14 13  1  0
 13 12  2  0
 12  1  1  0
  9 11  2  0
 11 15  1  0
 15 16  2  0
 16 18  1  0
 18 17  2  0
 17  9  1  0
  3  4  2  0
  4  6  1  0
  6  7  2  0
  7 10  1  0
 10  8  2  0
  8  3  1  0
M  END
$$$$
