No_3127-complexes_sdf/6BKW-FPZ/2024-09-17-14-21-01/
     RDKit          3D

 12 12  0  0  0  0  0  0  0  0999 V2000
   -7.9040    3.9820   27.1177 C   0  0  0  0  0  0  0  0  0  0  0  0
   -7.8663    4.8694   27.9238 C   0  0  0  0  0  0  0  0  0  0  0  0
   -7.4547    2.7080   27.4594 C   0  0  0  0  0  0  0  0  0  0  0  0
   -7.9337    1.5946   26.8372 C   0  0  0  0  0  0  0  0  0  0  0  0
   -8.9032    1.7881   25.8510 C   0  0  0  0  0  0  0  0  0  0  0  0
   -9.3787    2.9871   25.5530 C   0  0  0  0  0  0  0  0  0  0  0  0
   -8.9781    4.0300   26.2200 C   0  0  0  0  0  0  0  0  0  0  0  0
   -7.0280    5.0006   28.9409 N   0  0  0  0  0  0  0  0  0  0  0  0
   -8.3959    6.1313   27.6750 O   0  0  0  0  0  0  0  0  0  0  0  0
  -10.5298    2.9388   24.2536 Cl  0  0  0  0  0  0  0  0  0  0  0  0
   -7.2733    0.0614   27.2061 Cl  0  0  0  0  0  0  0  0  0  0  0  0
   -9.2361    0.6957   25.0607 F   0  0  0  0  0  0  0  0  0  0  0  0
  1  2  1  0
  2  8  1  0
  2  9  2  0
  6 10  1  0
  4 11  1  0
  5 12  1  0
  1  3  2  0
  3  4  1  0
  4  5  2  0
  5  6  1  0
  6  7  2  0
  7  1  1  0
M  END
$$$$
