No_3905-complexes_sdf/6BKW-FPZ/2024-09-17-14-21-01/
     RDKit          3D

 40 45  0  0  0  0  0  0  0  0999 V2000
   -7.9040    3.9820   27.1177 C   0  0  0  0  0  0  0  0  0  0  0  0
   -7.8663    4.8694   27.9238 C   0  0  0  0  0  0  0  0  0  0  0  0
   -9.0491    3.8523   26.2542 C   0  0  0  0  0  0  0  0  0  0  0  0
   -8.7661    5.9491   27.9690 C   0  0  0  0  0  0  0  0  0  0  0  0
   -9.9295    4.8502   26.2323 C   0  0  0  0  0  0  0  0  0  0  0  0
   -9.8077    5.9288   27.0933 C   0  0  0  0  0  0  0  0  0  0  0  0
   -7.0146    2.9513   27.1368 F   0  0  0  0  0  0  0  0  0  0  0  0
   -9.0848    2.8072   25.3384 O   0  0  0  0  0  0  0  0  0  0  0  0
  -10.1278    2.7612   24.4409 C   0  0  0  0  0  0  0  0  0  0  0  0
  -10.9022    2.1180   24.5173 C   0  0  0  0  0  0  0  0  0  0  0  0
  -12.0067    2.0354   23.4819 C   0  0  0  0  0  0  0  0  0  0  0  0
  -11.8341    2.8764   22.3710 C   0  0  0  0  0  0  0  0  0  0  0  0
  -10.0958    3.6705   23.2355 C   0  0  0  0  0  0  0  0  0  0  0  0
  -10.8799    3.7887   22.3235 C   0  0  0  0  0  0  0  0  0  0  0  0
  -12.9502    2.8465   21.2866 C   0  0  0  0  0  0  0  0  0  0  0  0
  -14.0367    3.5871   21.5604 C   0  0  0  0  0  0  0  0  0  0  0  0
  -15.0278    3.7434   20.6212 C   0  0  0  0  0  0  0  0  0  0  0  0
  -14.8565    3.1042   19.3510 C   0  0  0  0  0  0  0  0  0  0  0  0
  -12.6584    2.3210   20.0671 C   0  0  0  0  0  0  0  0  0  0  0  0
  -13.6589    2.4693   19.0725 C   0  0  0  0  0  0  0  0  0  0  0  0
  -10.5390    4.8000   21.3012 C   0  0  0  0  0  0  0  0  0  0  0  0
  -13.0808    1.0688   23.5203 C   0  0  0  0  0  0  0  0  0  0  0  0
  -12.7955   -0.1529   23.2529 C   0  0  0  0  0  0  0  0  0  0  0  0
  -13.8477   -1.1537   23.2827 C   0  0  0  0  0  0  0  0  0  0  0  0
  -15.1451   -0.7043   23.6066 C   0  0  0  0  0  0  0  0  0  0  0  0
  -15.4049    0.5917   23.9011 C   0  0  0  0  0  0  0  0  0  0  0  0
  -14.3522    1.5403   23.9120 C   0  0  0  0  0  0  0  0  0  0  0  0
  -16.7706    1.0332   24.2464 C   0  0  0  0  0  0  0  0  0  0  0  0
  -16.9727    1.8640   25.2720 C   0  0  0  0  0  0  0  0  0  0  0  0
  -18.2993    2.3580   25.5722 C   0  0  0  0  0  0  0  0  0  0  0  0
  -19.3260    1.8781   24.7625 C   0  0  0  0  0  0  0  0  0  0  0  0
  -17.8351    0.6494   23.4837 C   0  0  0  0  0  0  0  0  0  0  0  0
  -19.0786    1.0786   23.7046 C   0  0  0  0  0  0  0  0  0  0  0  0
  -20.1618    0.5988   22.8514 C   0  0  0  0  0  0  0  0  0  0  0  0
  -20.0951   -0.0717   21.9426 N   0  0  0  0  0  0  0  0  0  0  0  0
  -19.0325   -0.5439   21.5026 C   0  0  1  0  0  0  0  0  0  0  0  0
  -17.7382   -0.2189   22.2341 C   0  0  0  0  0  0  0  0  0  0  0  0
  -18.7210   -1.6174   20.2165 Cl  0  0  0  0  0  0  0  0  0  0  0  0
  -21.3365    1.1055   23.2481 O   0  0  0  0  0  0  0  0  0  0  0  0
  -11.4580   -0.6662   22.8568 C   0  0  0  0  0  0  0  0  0  0  0  0
  1  7  1  0
  3  8  1  0
  8  9  1  0
 12 15  1  0
 14 21  1  0
 11 22  1  0
 26 28  1  0
 33 34  1  0
 34 35  1  0
 35 36  1  0
 32 37  1  0
 36 38  1  1
 34 39  2  0
 23 40  1  0
 37 36  1  0
 28 29  2  0
 29 30  1  0
 30 31  2  0
 31 33  1  0
 33 32  2  0
 32 28  1  0
 22 23  2  0
 23 24  1  0
 24 25  2  0
 25 26  1  0
 26 27  2  0
 27 22  1  0
  9 10  2  0
 10 11  1  0
 11 12  2  0
 12 14  1  0
 14 13  2  0
 13  9  1  0
 15 16  2  0
 16 17  1  0
 17 18  2  0
 18 20  1  0
 20 19  2  0
 19 15  1  0
  1  2  2  0
  2  4  1  0
  4  6  2  0
  6  5  1  0
  5  3  2  0
  3  1  1  0
M  END
$$$$
