No_393-complexes_sdf/6BKW-FPZ/2024-09-17-14-21-01/
     RDKit          3D

 14 14  0  0  0  0  0  0  0  0999 V2000
   -7.9040    3.9820   27.1177 C   0  0  0  0  0  0  0  0  0  0  0  0
   -8.2057    2.8231   26.8733 C   0  0  0  0  0  0  0  0  0  0  0  0
   -8.7695    5.0740   26.7916 C   0  0  0  0  0  0  0  0  0  0  0  0
   -8.4337    6.4678   27.0913 C   0  0  0  0  0  0  0  0  0  0  0  0
   -9.3742    2.4311   26.2346 C   0  0  0  0  0  0  0  0  0  0  0  0
  -10.2395    3.4267   25.8887 C   0  0  0  0  0  0  0  0  0  0  0  0
   -9.9567    4.7548   26.1374 C   0  0  0  0  0  0  0  0  0  0  0  0
   -8.5487    6.7971   28.2302 F   0  0  0  0  0  0  0  0  0  0  0  0
   -7.1219    6.7526   26.7050 F   0  0  0  0  0  0  0  0  0  0  0  0
   -9.1637    7.3267   26.2913 F   0  0  0  0  0  0  0  0  0  0  0  0
   -7.0889    1.5233   27.3927 Cl  0  0  0  0  0  0  0  0  0  0  0  0
  -11.4658    3.1558   25.1282 C   0  0  0  0  0  0  0  0  0  0  0  0
  -12.5808    2.7112   25.7645 C   0  0  0  0  0  0  0  0  0  0  0  0
  -13.7687    2.4602   25.0596 C   0  0  0  0  0  0  0  0  0  0  0  0
  3  4  1  0
  4  8  1  0
  4  9  1  0
  4 10  1  0
  2 11  1  0
  6 12  1  0
 12 13  2  3
 13 14  1  0
  1  2  2  0
  2  5  1  0
  5  6  2  0
  6  7  1  0
  7  3  2  0
  3  1  1  0
M  END
$$$$
