No_3404-complexes_sdf/6BKW-FPZ/2024-09-17-14-21-01/
     RDKit          3D

 17 18  0  0  0  0  0  0  0  0999 V2000
   -7.7129    4.2099   27.0854 C   0  0  0  0  0  0  0  0  0  0  0  0
   -7.7814    5.1722   27.8972 C   0  0  0  0  0  0  0  0  0  0  0  0
   -8.8776    3.8408   26.3416 C   0  0  0  0  0  0  0  0  0  0  0  0
   -8.9136    2.6330   25.5655 C   0  0  0  0  0  0  0  0  0  0  0  0
   -8.8361    6.1389   27.9032 C   0  0  0  0  0  0  0  0  0  0  0  0
  -10.0140    4.6007   26.4589 C   0  0  0  0  0  0  0  0  0  0  0  0
   -9.9695    5.8024   27.1801 C   0  0  0  0  0  0  0  0  0  0  0  0
   -9.7277    1.6608   26.0025 C   0  0  0  0  0  0  0  0  0  0  0  0
   -9.4984    0.4667   25.5730 C   0  0  0  0  0  0  0  0  0  0  0  0
  -10.2259   -0.6104   26.1249 C   0  0  0  0  0  0  0  0  0  0  0  0
  -11.1697   -0.3563   27.1671 C   0  0  0  0  0  0  0  0  0  0  0  0
  -11.3123    0.9193   27.6793 C   0  0  0  0  0  0  0  0  0  0  0  0
  -10.5454    1.9487   27.1878 C   0  0  0  0  0  0  0  0  0  0  0  0
   -8.6292    0.1083   24.4514 C   0  0  0  0  0  0  0  0  0  0  0  0
   -9.0944    0.2611   23.1278 C   0  0  0  0  0  0  0  0  0  0  0  0
   -7.2998   -0.3429   24.6807 C   0  0  0  0  0  0  0  0  0  0  0  0
   -6.7721   -0.4971   25.9724 C   0  0  0  0  0  0  0  0  0  0  0  0
  3  4  1  0
  4  8  1  0
  9 14  1  0
 14 15  1  0
 14 16  1  0
 16 17  1  0
  8  9  2  0
  9 10  1  0
 10 11  2  0
 11 12  1  0
 12 13  2  0
 13  8  1  0
  1  2  2  0
  2  5  1  0
  5  7  2  0
  7  6  1  0
  6  3  2  0
  3  1  1  0
M  END
$$$$
