No_3209-complexes_sdf/6BKW-FPZ/2024-09-17-14-21-01/
     RDKit          3D

 30 32  0  0  0  0  0  0  0  0999 V2000
   -7.9040    3.9820   27.1177 C   0  0  0  0  0  0  0  0  0  0  0  0
   -8.2057    2.8231   26.8733 C   0  0  0  0  0  0  0  0  0  0  0  0
   -9.2962    2.4021   26.1155 C   0  0  0  0  0  0  0  0  0  0  0  0
   -6.8682    4.5169   28.0704 C   0  0  0  0  0  0  0  0  0  0  0  0
   -9.5736    0.9953   25.9283 C   0  0  0  0  0  0  0  0  0  0  0  0
   -8.6730    0.1252   26.5353 C   0  0  0  0  0  0  0  0  0  0  0  0
   -7.6250    0.4518   27.2671 C   0  0  0  0  0  0  0  0  0  0  0  0
   -7.3533    1.8830   27.4542 C   0  0  0  0  0  0  0  0  0  0  0  0
   -8.6618    5.1471   26.4909 C   0  0  0  0  0  0  0  0  0  0  0  0
   -8.4613    6.5227   26.9054 C   0  0  0  0  0  0  0  0  0  0  0  0
   -6.8405    5.8420   28.5016 C   0  0  0  0  0  0  0  0  0  0  0  0
   -7.5482    6.7842   27.8468 C   0  0  0  0  0  0  0  0  0  0  0  0
   -6.7366   -0.5380   27.8974 C   0  0  0  0  0  0  0  0  0  0  0  0
   -5.4281   -0.2132   28.2072 C   0  0  0  0  0  0  0  0  0  0  0  0
   -4.6113   -1.0935   28.9904 C   0  0  0  0  0  0  0  0  0  0  0  0
   -5.1787   -2.2548   29.4473 C   0  0  0  0  0  0  0  0  0  0  0  0
   -7.1985   -1.6944   28.4808 C   0  0  0  0  0  0  0  0  0  0  0  0
   -6.4947   -2.5258   29.2424 C   0  0  0  0  0  0  0  0  0  0  0  0
   -3.1812   -0.6992   29.2335 C   0  0  0  0  0  0  0  0  0  0  0  0
   -2.4260   -1.6031   28.8454 F   0  0  0  0  0  0  0  0  0  0  0  0
   -2.9969   -0.4624   30.5661 F   0  0  0  0  0  0  0  0  0  0  0  0
   -2.9077    0.5120   28.6289 F   0  0  0  0  0  0  0  0  0  0  0  0
  -10.6903    0.5875   25.1803 C   0  0  0  0  0  0  0  0  0  0  0  0
  -11.7991    0.4745   25.5623 N   0  0  0  0  0  0  0  0  0  0  0  0
  -12.9120    0.1368   25.1510 C   0  0  0  0  0  0  0  0  0  0  0  0
  -10.4859    0.3209   23.7553 C   0  0  0  0  0  0  0  0  0  0  0  0
   -9.6566    0.3515   23.0547 C   0  0  0  0  0  0  0  0  0  0  0  0
   -9.6235    0.0772   21.5816 C   0  0  0  0  0  0  0  0  0  0  0  0
  -10.8131   -0.2442   21.0377 C   0  0  0  0  0  0  0  0  0  0  0  0
  -11.9152   -0.3218   21.8569 C   0  0  0  0  0  0  0  0  0  0  0  0
  7 13  1  0
 15 19  1  0
 19 20  1  0
 19 21  1  0
 19 22  1  0
  5 23  1  0
 23 24  1  0
 24 25  1  0
 23 26  1  0
 26 27  2  3
 27 28  1  0
 28 29  2  3
 29 30  1  0
  2  1  1  0
  1  4  2  0
  4 11  1  0
 11 12  2  0
 12 10  1  0
 10  9  2  0
  9  1  1  0
  2  3  2  0
  3  5  1  0
  5  6  2  0
  6  7  1  0
  7  8  2  0
  8  2  1  0
 13 14  2  0
 14 15  1  0
 15 16  2  0
 16 18  1  0
 18 17  2  0
 17 13  1  0
M  END
$$$$
