No_3356-complexes_sdf/6BKW-FPZ/2024-09-17-14-21-01/
     RDKit          3D

 15 16  0  0  0  0  0  0  0  0999 V2000
   -7.2496    3.8871   27.4508 C   0  0  0  0  0  0  0  0  0  0  0  0
   -7.6161    2.7143   27.1523 C   0  0  0  0  0  0  0  0  0  0  0  0
   -8.6212    2.2239   26.4074 C   0  0  0  0  0  0  0  0  0  0  0  0
   -8.2540    4.9237   27.1711 C   0  0  0  0  0  0  0  0  0  0  0  0
   -8.0481    6.2918   27.4896 C   0  0  0  0  0  0  0  0  0  0  0  0
   -9.5812    3.2432   26.0960 C   0  0  0  0  0  0  0  0  0  0  0  0
   -9.3651    4.5697   26.4537 C   0  0  0  0  0  0  0  0  0  0  0  0
   -8.9398    7.2470   27.1255 N   0  0  0  0  0  0  0  0  0  0  0  0
   -8.8458    0.8650   26.0797 C   0  0  0  0  0  0  0  0  0  0  0  0
   -9.1849    0.0038   27.0176 C   0  0  0  0  0  0  0  0  0  0  0  0
   -9.3491   -1.3613   26.8647 C   0  0  0  0  0  0  0  0  0  0  0  0
   -8.6552    0.4003   24.8108 C   0  0  0  0  0  0  0  0  0  0  0  0
   -8.8013   -0.9457   24.4447 C   0  0  0  0  0  0  0  0  0  0  0  0
   -9.1764   -1.8008   25.5014 C   0  0  0  0  0  0  0  0  0  0  0  0
   -6.9156    6.6436   28.0676 O   0  0  0  0  0  0  0  0  0  0  0  0
  4  5  1  0
  5  8  2  0
  3  9  1  0
  5 15  1  0
  1  2  2  0
  2  3  1  0
  3  6  2  0
  6  7  1  0
  7  4  2  0
  4  1  1  0
  9 10  2  0
 10 11  1  0
 11 14  2  0
 14 13  1  0
 13 12  2  0
 12  9  1  0
M  END
$$$$
