No_3890-complexes_sdf/6BKW-FPZ/2024-09-17-14-21-01/
     RDKit          3D

 28 30  0  0  0  0  0  0  0  0999 V2000
   -7.7129    4.2099   27.0854 C   0  0  0  0  0  0  0  0  0  0  0  0
   -7.7814    5.1722   27.8972 C   0  0  0  0  0  0  0  0  0  0  0  0
   -8.8998    3.8713   26.3707 C   0  0  0  0  0  0  0  0  0  0  0  0
   -9.9938    4.6774   26.5446 C   0  0  0  0  0  0  0  0  0  0  0  0
   -8.7789    6.1536   27.9256 C   0  0  0  0  0  0  0  0  0  0  0  0
   -9.9428    5.8398   27.2296 C   0  0  0  0  0  0  0  0  0  0  0  0
   -8.9044    2.7318   25.6159 O   0  0  0  0  0  0  0  0  0  0  0  0
   -9.7886    1.7748   25.8628 C   0  0  0  0  0  0  0  0  0  0  0  0
   -9.6363    0.7341   25.3043 C   0  0  0  0  0  0  0  0  0  0  0  0
   -8.6843    0.4908   24.4452 C   0  0  0  0  0  0  0  0  0  0  0  0
   -7.5265    0.8398   24.6028 C   0  0  0  0  0  0  0  0  0  0  0  0
   -6.7955    0.2446   25.5210 C   0  0  0  0  0  0  0  0  0  0  0  0
   -6.6240    0.6858   26.8626 C   0  0  0  0  0  0  0  0  0  0  0  0
   -5.7163    0.1143   27.8188 C   0  0  0  0  0  0  0  0  0  0  0  0
   -4.8850   -0.8691   27.4026 C   0  0  0  0  0  0  0  0  0  0  0  0
   -4.9278   -1.2532   26.0274 C   0  0  0  0  0  0  0  0  0  0  0  0
   -5.7843   -0.7249   25.1418 C   0  0  0  0  0  0  0  0  0  0  0  0
   -3.8971   -1.4340   28.3292 C   0  0  0  0  0  0  0  0  0  0  0  0
   -2.8185   -1.1081   28.3708 C   0  0  0  0  0  0  0  0  0  0  0  0
   -1.8123   -1.5316   29.4241 C   0  0  0  0  0  0  0  0  0  0  0  0
   -2.2580   -2.2877   30.4585 C   0  0  0  0  0  0  0  0  0  0  0  0
   -3.6319   -2.5839   30.4286 C   0  0  0  0  0  0  0  0  0  0  0  0
   -4.5333   -2.1058   29.4881 C   0  0  0  0  0  0  0  0  0  0  0  0
  -10.8754    2.1806   26.3243 O   0  0  0  0  0  0  0  0  0  0  0  0
   -2.0698   -0.2114   27.3315 C   0  0  0  0  0  0  0  0  0  0  0  0
   -2.7755    0.2262   26.6553 F   0  0  0  0  0  0  0  0  0  0  0  0
   -1.1579   -1.0032   26.6824 F   0  0  0  0  0  0  0  0  0  0  0  0
   -1.1749    0.7290   27.9153 F   0  0  0  0  0  0  0  0  0  0  0  0
  3  7  1  0
  7  8  1  0
  8  9  1  0
  9 10  1  0
 10 11  2  3
 11 12  1  0
 15 18  1  0
  8 24  2  0
 19 25  1  0
 25 26  1  0
 25 27  1  0
 25 28  1  0
 12 13  2  0
 13 14  1  0
 14 15  2  0
 15 16  1  0
 16 17  2  0
 17 12  1  0
 18 19  2  0
 19 20  1  0
 20 21  2  0
 21 22  1  0
 22 23  2  0
 23 18  1  0
  1  2  2  0
  2  5  1  0
  5  6  2  0
  6  4  1  0
  4  3  2  0
  3  1  1  0
M  END
$$$$
