No_3134-complexes_sdf/6BKW-FPZ/2024-09-17-14-21-01/
     RDKit          3D

 12 12  0  0  0  0  0  0  0  0999 V2000
   -7.9040    3.9820   27.1177 C   0  0  0  0  0  0  0  0  0  0  0  0
   -7.8663    4.8694   27.9238 C   0  0  0  0  0  0  0  0  0  0  0  0
   -9.0491    3.8523   26.2542 C   0  0  0  0  0  0  0  0  0  0  0  0
   -8.7661    5.9491   27.9690 C   0  0  0  0  0  0  0  0  0  0  0  0
   -9.9295    4.8502   26.2323 C   0  0  0  0  0  0  0  0  0  0  0  0
   -9.8077    5.9288   27.0933 C   0  0  0  0  0  0  0  0  0  0  0  0
   -7.1139    2.7411   27.0872 C   0  0  0  0  0  0  0  0  0  0  0  0
   -5.9298    2.9481   27.6593 F   0  0  0  0  0  0  0  0  0  0  0  0
   -7.3882    1.6253   26.7183 F   0  0  0  0  0  0  0  0  0  0  0  0
  -11.2170    4.8074   25.0968 Cl  0  0  0  0  0  0  0  0  0  0  0  0
   -9.2107    2.5902   25.0976 Cl  0  0  0  0  0  0  0  0  0  0  0  0
   -6.8196    5.0353   28.7724 F   0  0  0  0  0  0  0  0  0  0  0  0
  1  7  1  0
  7  8  1  0
  7  9  1  0
  5 10  1  0
  3 11  1  0
  2 12  1  0
  1  2  2  0
  2  4  1  0
  4  6  2  0
  6  5  1  0
  5  3  2  0
  3  1  1  0
M  END
$$$$
