No_3272-complexes_sdf/6BKW-FPZ/2024-09-17-14-21-01/
     RDKit          3D

 26 29  0  0  0  0  0  0  0  0999 V2000
   -7.7129    4.2099   27.0854 C   0  0  0  0  0  0  0  0  0  0  0  0
   -7.7814    5.1722   27.8972 C   0  0  0  0  0  0  0  0  0  0  0  0
   -8.8998    3.8713   26.3707 C   0  0  0  0  0  0  0  0  0  0  0  0
   -9.7507    4.7502   26.0937 C   0  0  0  0  0  0  0  0  0  0  0  0
   -8.5557    6.3760   27.5754 C   0  0  0  0  0  0  0  0  0  0  0  0
   -9.7727    6.0382   26.9056 C   0  0  0  0  0  0  0  0  0  0  0  0
   -8.9576    2.5306   25.7106 C   0  0  0  0  0  0  0  0  0  0  0  0
   -9.7452    2.2694   24.6684 C   0  0  0  0  0  0  0  0  0  0  0  0
   -8.1584    1.4842   26.2516 C   0  0  0  0  0  0  0  0  0  0  0  0
   -8.1399    0.2125   25.7391 C   0  0  0  0  0  0  0  0  0  0  0  0
   -9.7352    1.0075   24.0700 C   0  0  0  0  0  0  0  0  0  0  0  0
   -8.9615   -0.0057   24.6473 C   0  0  0  0  0  0  0  0  0  0  0  0
  -10.8529    4.6334   25.1666 C   0  0  0  0  0  0  0  0  0  0  0  0
  -10.7342    3.3234   24.2806 C   0  0  0  0  0  0  0  0  0  0  0  0
  -11.5746    3.2067   23.2067 C   0  0  0  0  0  0  0  0  0  0  0  0
  -11.0517    3.2784   21.9876 C   0  0  0  0  0  0  0  0  0  0  0  0
  -12.9312    2.9288   23.3439 C   0  0  0  0  0  0  0  0  0  0  0  0
   -9.8738    3.8736   21.6458 C   0  0  0  0  0  0  0  0  0  0  0  0
  -11.8192    2.6339   20.9015 C   0  0  0  0  0  0  0  0  0  0  0  0
  -13.6241    2.1925   22.5769 C   0  0  0  0  0  0  0  0  0  0  0  0
  -13.1421    2.2755   21.1245 C   0  0  0  0  0  0  0  0  0  0  0  0
   -6.6754    5.5474   28.6471 O   0  0  0  0  0  0  0  0  0  0  0  0
   -8.9676   -1.3391   24.0124 C   0  0  0  0  0  0  0  0  0  0  0  0
   -9.3647   -1.6268   23.0741 O   0  0  0  0  0  0  0  0  0  0  0  0
   -8.0323   -2.1666   24.6031 N   0  0  0  0  0  0  0  0  0  0  0  0
   -7.2146   -2.0846   25.6826 C   0  0  0  0  0  0  0  0  0  0  0  0
  1  2  1  0
  1  3  1  0
  2  5  1  0
  4  6  1  0
  5  6  1  0
 14 15  1  0
 16 18  1  0
  2 22  2  0
 12 23  1  0
 23 24  2  0
 23 25  1  0
 25 26  1  0
 15 16  2  0
 16 19  1  0
 19 21  2  0
 21 20  1  0
 20 17  2  0
 17 15  1  0
  8 11  2  0
 11 12  1  0
 12 10  2  0
 10  9  1  0
  9  7  2  0
  3  4  2  0
  4 13  1  0
 13 14  2  0
 14  8  1  0
  8  7  1  0
  7  3  1  0
M  END
$$$$
