No_333-complexes_sdf/6BKW-FPZ/2024-09-17-14-21-01/
     RDKit          3D

 22 25  0  0  0  0  0  0  0  0999 V2000
   -7.7129    4.2099   27.0854 C   0  0  0  0  0  0  0  0  0  0  0  0
   -7.7814    5.1722   27.8972 C   0  0  0  0  0  0  0  0  0  0  0  0
   -7.3155    2.9699   27.6145 C   0  0  0  0  0  0  0  0  0  0  0  0
   -6.0698    2.9196   27.9364 C   0  0  0  0  0  0  0  0  0  0  0  0
   -5.4652    1.6431   28.3123 C   0  0  0  0  0  0  0  0  0  0  0  0
   -6.1382    0.4688   27.9858 C   0  0  0  0  0  0  0  0  0  0  0  0
   -7.4221    0.5462   27.4067 C   0  0  0  0  0  0  0  0  0  0  0  0
   -8.0139    1.7920   27.1496 C   0  0  0  0  0  0  0  0  0  0  0  0
   -8.3551    6.5431   27.5353 C   0  0  0  0  0  0  0  0  0  0  0  0
   -8.9204    4.2994   26.2495 C   0  0  0  0  0  0  0  0  0  0  0  0
   -9.4773    5.4887   25.7658 C   0  0  0  0  0  0  0  0  0  0  0  0
   -9.1648    6.6489   26.5291 C   0  0  0  0  0  0  0  0  0  0  0  0
   -5.6887   -0.8886   28.2127 C   0  0  0  0  0  0  0  0  0  0  0  0
   -4.4810   -1.1076   28.6886 N   0  0  0  0  0  0  0  0  0  0  0  0
   -6.3882   -1.8930   28.0723 O   0  0  0  0  0  0  0  0  0  0  0  0
   -3.8956   -2.3815   29.0320 C   0  0  0  0  0  0  0  0  0  0  0  0
   -2.6980   -2.3736   29.2465 C   0  0  0  0  0  0  0  0  0  0  0  0
   -1.7740   -1.2276   29.3018 C   0  0  0  0  0  0  0  0  0  0  0  0
   -2.4467    0.0247   28.9744 C   0  0  0  0  0  0  0  0  0  0  0  0
   -3.6246    0.0401   28.6833 C   0  0  2  0  0  0  0  0  0  0  0  0
   -4.2236    1.4111   28.4528 C   0  0  0  0  0  0  0  0  0  0  0  0
   -9.2838    2.9315   25.2001 Cl  0  0  0  0  0  0  0  0  0  0  0  0
  6 13  1  0
 13 14  1  0
 13 15  2  0
 14 16  1  0
 17 18  1  0
 14 20  1  0
 20 19  1  1
  5 21  1  0
 20 21  1  0
 10 22  1  0
  3  1  1  0
 16 17  1  0
 18 19  1  0
  3  4  2  0
  4  5  1  0
  5  6  2  0
  6  7  1  0
  7  8  2  0
  8  3  1  0
  1  2  2  0
  2  9  1  0
  9 12  2  0
 12 11  1  0
 11 10  2  0
 10  1  1  0
M  END
$$$$
