No_384-complexes_sdf/6BKW-FPZ/2024-09-17-14-21-01/
     RDKit          3D

 22 23  0  0  0  0  0  0  0  0999 V2000
   -7.2496    3.8871   27.4508 C   0  0  0  0  0  0  0  0  0  0  0  0
   -7.9379    4.9063   27.8518 C   0  0  0  0  0  0  0  0  0  0  0  0
   -9.3376    4.8647   27.7795 C   0  0  0  0  0  0  0  0  0  0  0  0
   -7.8544    2.6294   27.0414 C   0  0  0  0  0  0  0  0  0  0  0  0
   -9.2852    2.6570   27.0666 C   0  0  0  0  0  0  0  0  0  0  0  0
  -10.0126    3.7528   27.4890 C   0  0  0  0  0  0  0  0  0  0  0  0
  -10.1279    1.4820   26.7580 C   0  0  0  0  0  0  0  0  0  0  0  0
  -11.0447    1.1402   27.3554 C   0  0  0  0  0  0  0  0  0  0  0  0
  -11.7953   -0.0604   27.1581 C   0  0  0  0  0  0  0  0  0  0  0  0
  -11.3303   -0.8945   26.1880 C   0  0  0  0  0  0  0  0  0  0  0  0
   -9.6041    0.4538   25.8025 C   0  0  0  0  0  0  0  0  0  0  0  0
   -8.3799    0.9680   25.0334 C   0  0  0  0  0  0  0  0  0  0  0  0
  -10.2165   -0.6294   25.4522 C   0  0  0  0  0  0  0  0  0  0  0  0
   -7.3152    6.0713   28.2167 O   0  0  0  0  0  0  0  0  0  0  0  0
   -9.8726   -1.4435   24.5347 F   0  0  0  0  0  0  0  0  0  0  0  0
  -12.9970   -0.4549   28.0381 C   0  0  0  0  0  0  0  0  0  0  0  0
  -14.1678    0.0650   27.7503 C   0  0  0  0  0  0  0  0  0  0  0  0
  -14.3910    1.1302   27.2621 C   0  0  0  0  0  0  0  0  0  0  0  0
  -15.0631    1.9049   26.9918 C   0  0  0  0  0  0  0  0  0  0  0  0
  -14.8857    3.2042   26.2476 C   0  0  0  0  0  0  0  0  0  0  0  0
  -13.5911    3.5013   25.7848 C   0  0  0  0  0  0  0  0  0  0  0  0
  -12.6720    2.5368   25.9240 C   0  0  0  0  0  0  0  0  0  0  0  0
  5  7  1  0
 11 12  1  0
  2 14  1  0
 13 15  1  0
  9 16  1  0
 16 17  1  0
 17 18  2  3
 18 19  1  0
 19 20  2  3
 20 21  1  0
 21 22  2  0
  1  2  2  0
  2  3  1  0
  3  6  2  0
  6  5  1  0
  5  4  2  0
  4  1  1  0
  7  8  2  0
  8  9  1  0
  9 10  2  0
 10 13  1  0
 13 11  2  0
 11  7  1  0
M  END
$$$$
