No_3590-complexes_sdf/6BKW-FPZ/2024-09-17-14-21-01/
     RDKit          3D

 21 23  0  0  0  0  0  0  0  0999 V2000
   -7.2496    3.8871   27.4508 C   0  0  0  0  0  0  0  0  0  0  0  0
   -7.9379    4.9063   27.8518 C   0  0  0  0  0  0  0  0  0  0  0  0
   -8.9501    5.3664   27.1340 C   0  0  0  0  0  0  0  0  0  0  0  0
   -7.8297    2.9727   26.4637 C   0  0  0  0  0  0  0  0  0  0  0  0
   -9.6373    4.6098   26.1956 C   0  0  0  0  0  0  0  0  0  0  0  0
   -9.0235    3.4546   25.8531 C   0  0  0  0  0  0  0  0  0  0  0  0
   -9.6254    2.5622   24.8676 C   0  0  0  0  0  0  0  0  0  0  0  0
  -10.3271    3.1298   23.8628 N   0  0  0  0  0  0  0  0  0  0  0  0
  -10.5624    2.5504   22.6660 C   0  0  0  0  0  0  0  0  0  0  0  0
  -10.0181    1.4043   22.3332 C   0  0  0  0  0  0  0  0  0  0  0  0
   -9.0739    1.3152   24.5864 C   0  0  0  0  0  0  0  0  0  0  0  0
   -9.2148    0.7249   23.3546 C   0  0  0  0  0  0  0  0  0  0  0  0
  -11.3808    3.2855   21.6840 C   0  0  0  0  0  0  0  0  0  0  0  0
   -7.3298    5.7416   28.7941 O   0  0  0  0  0  0  0  0  0  0  0  0
  -11.4103    4.6038   21.9167 C   0  0  0  0  0  0  0  0  0  0  0  0
  -10.8170    3.1156   20.3036 C   0  0  0  0  0  0  0  0  0  0  0  0
  -12.7846    2.7189   21.6375 C   0  0  0  0  0  0  0  0  0  0  0  0
  -13.6873    3.4748   21.6261 C   0  0  0  0  0  0  0  0  0  0  0  0
  -13.7249    4.8855   21.8901 C   0  0  0  0  0  0  0  0  0  0  0  0
  -12.4852    5.5015   22.0823 C   0  0  0  0  0  0  0  0  0  0  0  0
   -8.5637   -0.8002   23.0258 Cl  0  0  0  0  0  0  0  0  0  0  0  0
  6  7  1  0
  9 13  1  0
  2 14  1  0
 13 15  1  0
 13 16  1  0
 13 17  1  0
 18 19  1  0
 15 20  1  0
 12 21  1  0
 20 19  1  0
 18 17  1  0
  7  8  2  0
  8  9  1  0
  9 10  2  0
 10 12  1  0
 12 11  2  0
 11  7  1  0
  1  2  2  0
  2  3  1  0
  3  5  2  0
  5  6  1  0
  6  4  2  0
  4  1  1  0
M  END
$$$$
