No_3748-complexes_sdf/6BKW-FPZ/2024-09-17-14-21-01/
     RDKit          3D

 23 25  0  0  0  0  0  0  0  0999 V2000
   -7.7129    4.2099   27.0854 C   0  0  0  0  0  0  0  0  0  0  0  0
   -8.2112    3.0637   26.9225 C   0  0  0  0  0  0  0  0  0  0  0  0
   -8.4224    5.2106   27.8516 C   0  0  0  0  0  0  0  0  0  0  0  0
   -9.5628    2.7160   27.4089 C   0  0  0  0  0  0  0  0  0  0  0  0
  -10.2639    3.7034   28.1156 C   0  0  0  0  0  0  0  0  0  0  0  0
   -9.7059    4.9514   28.3169 C   0  0  0  0  0  0  0  0  0  0  0  0
  -11.6210    3.4159   28.6340 C   0  0  0  0  0  0  0  0  0  0  0  0
  -12.0063    2.0964   28.7914 C   0  0  0  0  0  0  0  0  0  0  0  0
  -13.1560    1.8673   28.8637 C   0  0  0  0  0  0  0  0  0  0  0  0
  -14.1892    2.8202   29.1576 C   0  0  0  0  0  0  0  0  0  0  0  0
  -13.8165    4.1494   29.0307 C   0  0  0  0  0  0  0  0  0  0  0  0
  -12.5526    4.4695   28.6503 C   0  0  0  0  0  0  0  0  0  0  0  0
   -7.2912    1.6173   26.1109 Br  0  0  0  0  0  0  0  0  0  0  0  0
   -7.7294    6.7937   27.9218 Cl  0  0  0  0  0  0  0  0  0  0  0  0
  -14.8629    5.2340   29.1370 C   0  0  0  0  0  0  0  0  0  0  0  0
  -15.3830    5.5548   30.3390 C   0  0  0  0  0  0  0  0  0  0  0  0
  -16.3404    6.6497   30.4010 C   0  0  0  0  0  0  0  0  0  0  0  0
  -16.5715    7.4323   29.2654 C   0  0  0  0  0  0  0  0  0  0  0  0
  -15.1693    6.1062   28.0298 C   0  0  0  0  0  0  0  0  0  0  0  0
  -17.5133    8.5444   29.3393 C   0  0  0  0  0  0  0  0  0  0  0  0
  -15.9444    7.1707   28.0952 C   0  0  0  0  0  0  0  0  0  0  0  0
  -18.0199    8.9744   30.3511 F   0  0  0  0  0  0  0  0  0  0  0  0
  -18.0762    8.9218   28.2598 F   0  0  0  0  0  0  0  0  0  0  0  0
  5  7  1  0
  2 13  1  0
  3 14  1  0
 11 15  1  0
 18 20  1  0
 20 22  1  0
 20 23  1  0
  1  2  2  0
  2  4  1  0
  4  5  2  0
  5  6  1  0
  6  3  2  0
  3  1  1  0
 15 16  2  0
 16 17  1  0
 17 18  2  0
 18 21  1  0
 21 19  2  0
 19 15  1  0
  7  8  2  0
  8  9  1  0
  9 10  2  0
 10 11  1  0
 11 12  2  0
 12  7  1  0
M  END
$$$$
