No_3516-complexes_sdf/6BKW-FPZ/2024-09-17-14-21-01/
     RDKit          3D

 15 16  0  0  0  0  0  0  0  0999 V2000
   -7.7129    4.2099   27.0854 C   0  0  0  0  0  0  0  0  0  0  0  0
   -8.2112    3.0637   26.9225 C   0  0  0  0  0  0  0  0  0  0  0  0
   -9.4446    2.8304   26.1868 C   0  0  0  0  0  0  0  0  0  0  0  0
   -8.4697    5.3956   26.7238 C   0  0  0  0  0  0  0  0  0  0  0  0
   -9.6172    5.2111   25.9513 C   0  0  0  0  0  0  0  0  0  0  0  0
  -10.0424    3.9782   25.6873 C   0  0  0  0  0  0  0  0  0  0  0  0
   -7.5056    1.8167   27.4088 C   0  0  0  0  0  0  0  0  0  0  0  0
   -6.9121    0.9320   26.6423 C   0  0  0  0  0  0  0  0  0  0  0  0
   -6.2228   -0.1449   27.2405 C   0  0  0  0  0  0  0  0  0  0  0  0
   -6.6003   -1.3489   27.1791 C   0  0  0  0  0  0  0  0  0  0  0  0
   -7.9111   -1.5720   26.6939 C   0  0  0  0  0  0  0  0  0  0  0  0
   -8.8181   -2.0388   27.3787 C   0  0  0  0  0  0  0  0  0  0  0  0
   -8.6150   -2.3935   28.7830 C   0  0  0  0  0  0  0  0  0  0  0  0
   -7.3041   -2.5653   29.2558 C   0  0  0  0  0  0  0  0  0  0  0  0
   -6.3308   -1.7922   28.5515 C   0  0  0  0  0  0  0  0  0  0  0  0
  2  7  1  0
  7  8  2  3
  8  9  1  0
  9 10  1  0
  1  2  2  0
  2  3  1  0
  3  6  2  0
  6  5  1  0
  5  4  2  0
  4  1  1  0
 10 11  2  0
 11 12  1  0
 12 13  2  0
 13 14  1  0
 14 15  2  0
 15 10  1  0
M  END
$$$$
