No_3206-complexes_sdf/6BKW-FPZ/2024-09-17-14-21-01/
     RDKit          3D

 29 32  0  0  0  0  0  0  0  0999 V2000
   -7.7129    4.2099   27.0854 C   0  0  0  0  0  0  0  0  0  0  0  0
   -7.7814    5.1722   27.8972 C   0  0  0  0  0  0  0  0  0  0  0  0
   -8.8776    3.8408   26.3416 C   0  0  0  0  0  0  0  0  0  0  0  0
   -8.9136    2.6330   25.5655 C   0  0  0  0  0  0  0  0  0  0  0  0
   -8.8361    6.1389   27.9032 C   0  0  0  0  0  0  0  0  0  0  0  0
  -10.0140    4.6007   26.4589 C   0  0  0  0  0  0  0  0  0  0  0  0
  -11.0945    4.2687   25.7155 C   0  0  0  0  0  0  0  0  0  0  0  0
   -9.9716    5.7939   27.1971 C   0  0  0  0  0  0  0  0  0  0  0  0
   -9.9640    2.3392   24.7370 C   0  0  0  0  0  0  0  0  0  0  0  0
  -11.0531    3.2126   24.8454 C   0  0  0  0  0  0  0  0  0  0  0  0
  -12.2037    2.8758   23.9361 C   0  0  0  0  0  0  0  0  0  0  0  0
  -13.2183    2.1861   24.4515 C   0  0  0  0  0  0  0  0  0  0  0  0
  -12.1991    3.3818   22.6090 C   0  0  0  0  0  0  0  0  0  0  0  0
  -13.3162    1.6896   25.5716 C   0  0  0  0  0  0  0  0  0  0  0  0
  -13.7746    1.3356   26.4153 C   0  0  0  0  0  0  0  0  0  0  0  0
  -14.0235    2.0696   27.5527 C   0  0  0  0  0  0  0  0  0  0  0  0
  -12.9727    2.9143   27.9888 C   0  0  0  0  0  0  0  0  0  0  0  0
  -13.3143    4.0175   28.8762 C   0  0  0  0  0  0  0  0  0  0  0  0
  -14.4457    2.0354   23.5812 C   0  0  0  0  0  0  0  0  0  0  0  0
  -14.4114    2.5095   22.3186 C   0  0  0  0  0  0  0  0  0  0  0  0
  -10.9808    4.2167   22.1227 C   0  0  0  0  0  0  0  0  0  0  0  0
  -13.3148    3.2818   21.7794 C   0  0  0  0  0  0  0  0  0  0  0  0
  -11.8043    1.3956   26.0437 O   0  0  0  0  0  0  0  0  0  0  0  0
  -11.6928    0.2064   26.8513 C   0  0  0  0  0  0  0  0  0  0  0  0
  -11.0651   -0.6307   26.5026 C   0  0  0  0  0  0  0  0  0  0  0  0
  -10.7090   -1.7482   27.3560 C   0  0  0  0  0  0  0  0  0  0  0  0
  -11.1461   -1.7189   28.7001 C   0  0  0  0  0  0  0  0  0  0  0  0
  -11.8348   -0.6039   29.1453 C   0  0  0  0  0  0  0  0  0  0  0  0
  -12.0752    0.4095   28.2840 C   0  0  0  0  0  0  0  0  0  0  0  0
 10 11  1  0
 12 14  1  0
 14 15  2  3
 15 16  1  0
 16 17  2  3
 17 18  1  0
 13 21  1  0
 14 23  1  0
 23 24  1  0
  1  2  2  0
  2  5  1  0
  5  8  2  0
  8  6  1  0
  3  1  1  0
 24 25  2  0
 25 26  1  0
 26 27  2  0
 27 28  1  0
 28 29  2  0
 29 24  1  0
 11 12  2  0
 12 19  1  0
 19 20  2  0
 20 22  1  0
 22 13  2  0
 13 11  1  0
  3  4  2  0
  4  9  1  0
  9 10  2  0
 10  7  1  0
  7  6  2  0
  6  3  1  0
M  END
$$$$
