No_3240-complexes_sdf/6BKW-FPZ/2024-09-17-14-21-01/
     RDKit          3D

 22 23  0  0  0  0  0  0  0  0999 V2000
   -7.9040    3.9820   27.1177 C   0  0  0  0  0  0  0  0  0  0  0  0
   -7.8663    4.8694   27.9238 C   0  0  0  0  0  0  0  0  0  0  0  0
   -9.0501    3.8017   26.2617 C   0  0  0  0  0  0  0  0  0  0  0  0
   -9.1826    2.7026   25.3575 C   0  0  0  0  0  0  0  0  0  0  0  0
   -8.6940    6.0131   27.8614 C   0  0  0  0  0  0  0  0  0  0  0  0
  -10.1138    4.6733   26.4644 C   0  0  0  0  0  0  0  0  0  0  0  0
   -9.8579    5.8496   27.1764 C   0  0  0  0  0  0  0  0  0  0  0  0
   -8.6968    1.4750   25.7160 C   0  0  0  0  0  0  0  0  0  0  0  0
   -8.7915    0.4039   24.8284 C   0  0  0  0  0  0  0  0  0  0  0  0
   -9.4063    0.6547   23.5699 C   0  0  0  0  0  0  0  0  0  0  0  0
   -9.7531    2.8258   24.1076 C   0  0  0  0  0  0  0  0  0  0  0  0
   -9.5226   -0.4233   22.5991 C   0  0  0  0  0  0  0  0  0  0  0  0
   -9.8258    1.8721   23.1876 C   0  0  0  0  0  0  0  0  0  0  0  0
  -10.6479   -1.2872   22.5290 Cl  0  0  0  0  0  0  0  0  0  0  0  0
   -8.3590   -0.6081   21.6750 C   0  0  0  0  0  0  0  0  0  0  0  0
   -8.4296   -1.6572   20.7455 C   0  0  0  0  0  0  0  0  0  0  0  0
   -7.2556   -2.2943   20.3465 C   0  0  0  0  0  0  0  0  0  0  0  0
   -6.0210   -1.9767   20.9818 C   0  0  0  0  0  0  0  0  0  0  0  0
   -6.0869   -1.0568   22.0640 C   0  0  0  0  0  0  0  0  0  0  0  0
   -7.1561   -0.5085   22.4875 C   0  0  0  0  0  0  0  0  0  0  0  0
   -7.0274    0.3499   23.4461 F   0  0  0  0  0  0  0  0  0  0  0  0
   -7.3398   -1.3127   23.4544 F   0  0  0  0  0  0  0  0  0  0  0  0
  3  4  1  0
 10 12  1  0
 12 14  1  0
 12 15  1  0
 15 16  2  3
 16 17  1  0
 17 18  2  3
 18 19  1  0
 19 20  1  0
 20 21  1  0
 20 22  1  0
  4  8  2  0
  8  9  1  0
  9 10  2  0
 10 13  1  0
 13 11  2  0
 11  4  1  0
  1  2  2  0
  2  5  1  0
  5  7  2  0
  7  6  1  0
  6  3  2  0
  3  1  1  0
M  END
$$$$
