No_3046-complexes_sdf/6BKW-FPZ/2024-09-17-14-21-01/
     RDKit          3D

 12 12  0  0  0  0  0  0  0  0999 V2000
   -7.7129    4.2099   27.0854 C   0  0  0  0  0  0  0  0  0  0  0  0
   -8.9133    4.4736   27.0998 C   0  0  0  0  0  0  0  0  0  0  0  0
   -9.4643    5.5426   27.7628 C   0  0  0  0  0  0  0  0  0  0  0  0
   -6.8373    4.9942   27.9785 C   0  0  0  0  0  0  0  0  0  0  0  0
   -7.3717    6.0428   28.6744 C   0  0  0  0  0  0  0  0  0  0  0  0
   -8.6869    6.3937   28.5345 C   0  0  0  0  0  0  0  0  0  0  0  0
   -9.8077    3.6184   26.2213 C   0  0  2  0  0  0  0  0  0  0  0  0
   -9.9211    2.3431   26.3757 C   0  0  0  0  0  0  0  0  0  0  0  0
   -9.5330    1.7263   27.4233 C   0  0  0  0  0  0  0  0  0  0  0  0
   -9.5975    0.2799   27.7094 C   0  0  0  0  0  0  0  0  0  0  0  0
   -9.6579    4.2062   24.7682 C   0  0  0  0  0  0  0  0  0  0  0  0
  -10.4947    3.5694   23.7533 C   0  0  0  0  0  0  0  0  0  0  0  0
  2  7  1  0
  7  8  1  0
  8  9  2  3
  9 10  1  0
  7 11  1  6
 11 12  1  0
  1  2  2  0
  2  3  1  0
  3  6  2  0
  6  5  1  0
  5  4  2  0
  4  1  1  0
M  END
$$$$
