No_3013-complexes_sdf/6BKW-FPZ/2024-09-17-14-21-01/
     RDKit          3D

 15 17  0  0  0  0  0  0  0  0999 V2000
   -7.9040    3.9820   27.1177 C   0  0  0  0  0  0  0  0  0  0  0  0
   -9.0711    4.3164   27.0630 C   0  0  0  0  0  0  0  0  0  0  0  0
   -9.5182    5.5541   27.5777 C   0  0  0  0  0  0  0  0  0  0  0  0
   -6.9424    4.7983   27.8424 C   0  0  0  0  0  0  0  0  0  0  0  0
   -7.3526    5.9739   28.3909 C   0  0  0  0  0  0  0  0  0  0  0  0
   -8.6479    6.3742   28.2169 C   0  0  0  0  0  0  0  0  0  0  0  0
  -10.0793    3.4689   26.3368 C   0  0  1  0  0  0  0  0  0  0  0  0
  -10.8066    3.4471   25.6317 C   0  0  0  0  0  0  0  0  0  0  0  0
  -11.1209    4.7431   24.8557 C   0  0  0  0  0  0  0  0  0  0  0  0
  -10.7548    4.5927   23.6217 C   0  0  0  0  0  0  0  0  0  0  0  0
  -10.8592    3.7209   22.8903 C   0  0  0  0  0  0  0  0  0  0  0  0
  -10.9940    2.3721   23.4989 C   0  0  0  0  0  0  0  0  0  0  0  0
  -10.4572    2.5266   24.5179 C   0  0  0  0  0  0  0  0  0  0  0  0
   -9.2310    2.2604   26.1716 N   0  0  0  0  0  0  0  0  0  0  0  0
   -9.7959    1.5291   25.1538 C   0  0  0  0  0  0  0  0  0  0  0  0
  7  2  1  6
  7 14  1  0
 13 15  1  0
 14 15  2  0
  7  8  1  0
  1  2  2  0
  2  3  1  0
  3  6  2  0
  6  5  1  0
  5  4  2  0
  4  1  1  0
  8  9  2  0
  9 10  1  0
 10 11  2  0
 11 12  1  0
 12 13  2  0
 13  8  1  0
M  END
$$$$
