No_3287-complexes_sdf/6BKW-FPZ/2024-09-17-14-21-01/
     RDKit          3D

 33 36  0  0  0  0  0  0  0  0999 V2000
   -7.2496    3.8871   27.4508 C   0  0  0  0  0  0  0  0  0  0  0  0
   -7.9379    4.9063   27.8518 C   0  0  1  0  0  0  0  0  0  0  0  0
   -7.5112    6.1898   27.6280 C   0  0  0  0  0  0  0  0  0  0  0  0
   -9.4044    4.7330   27.8015 C   0  0  0  0  0  0  0  0  0  0  0  0
   -7.6918    2.5968   27.9026 C   0  0  1  0  0  0  0  0  0  0  0  0
   -9.0781    2.2804   27.6915 C   0  0  0  0  0  0  0  0  0  0  0  0
   -9.9269    3.4147   28.0701 C   0  0  2  0  0  0  0  0  0  0  0  0
  -11.2663    3.1580   28.5370 C   0  0  0  0  0  0  0  0  0  0  0  0
  -12.1942    4.1230   28.7160 C   0  0  0  0  0  0  0  0  0  0  0  0
  -11.6277    1.8151   28.9260 C   0  0  0  0  0  0  0  0  0  0  0  0
  -13.4986    3.8921   29.2184 C   0  0  0  0  0  0  0  0  0  0  0  0
  -12.9378    1.5517   29.3578 C   0  0  0  0  0  0  0  0  0  0  0  0
  -13.8002    2.5892   29.5498 C   0  0  0  0  0  0  0  0  0  0  0  0
   -6.7856    1.4094   27.5016 C   0  0  0  0  0  0  0  0  0  0  0  0
   -5.4509    1.4097   28.0012 C   0  0  0  0  0  0  0  0  0  0  0  0
   -4.5788    0.3382   27.8507 C   0  0  0  0  0  0  0  0  0  0  0  0
   -4.9548   -0.7392   27.1130 C   0  0  0  0  0  0  0  0  0  0  0  0
   -7.0742    0.1501   26.9588 C   0  0  0  0  0  0  0  0  0  0  0  0
   -6.2520   -0.8017   26.6635 C   0  0  0  0  0  0  0  0  0  0  0  0
   -3.1451    0.5221   28.3552 C   0  0  0  0  0  0  0  0  0  0  0  0
   -2.6375   -0.7847   28.8496 C   0  0  2  0  0  0  0  0  0  0  0  0
   -2.8267   -1.0056   30.1825 C   0  0  0  0  0  0  0  0  0  0  0  0
   -2.2189   -2.0485   30.7975 C   0  0  0  0  0  0  0  0  0  0  0  0
   -2.4309   -2.3015   32.2172 C   0  0  0  0  0  0  0  0  0  0  0  0
   -3.0748   -1.6222   32.8264 C   0  0  0  0  0  0  0  0  0  0  0  0
   -3.5848   -0.1575   31.1047 C   0  0  0  0  0  0  0  0  0  0  0  0
   -3.7044   -0.4322   32.3979 C   0  0  0  0  0  0  0  0  0  0  0  0
   -1.7743   -1.4887   28.0606 C   0  0  0  0  0  0  0  0  0  0  0  0
  -15.1797    2.2946   30.0517 C   0  0  0  0  0  0  0  0  0  0  0  0
  -15.4706    1.3402   30.6024 F   0  0  0  0  0  0  0  0  0  0  0  0
  -15.5327    3.3809   30.8915 F   0  0  0  0  0  0  0  0  0  0  0  0
  -16.0235    2.5046   28.9845 F   0  0  0  0  0  0  0  0  0  0  0  0
   -8.3521    7.3007   27.0518 C   0  0  0  0  0  0  0  0  0  0  0  0
  1  2  1  0
  2  3  1  6
  2  4  1  0
  1  5  1  0
  5  6  1  0
  4  7  1  0
  6  7  1  0
  7  8  1  6
  5 14  1  6
 16 20  1  0
 20 21  1  0
 21 22  1  0
 21 28  1  1
 13 29  1  0
 29 30  1  0
 29 31  1  0
 29 32  1  0
  3 33  1  0
  8  9  2  0
  9 11  1  0
 11 13  2  0
 13 12  1  0
 12 10  2  0
 10  8  1  0
 22 23  2  0
 23 24  1  0
 24 25  2  0
 25 27  1  0
 27 26  2  0
 26 22  1  0
 14 15  2  0
 15 16  1  0
 16 17  2  0
 17 19  1  0
 19 18  2  0
 18 14  1  0
M  END
$$$$
