No_330-complexes_sdf/6BKW-FPZ/2024-09-17-14-21-01/
     RDKit          3D

  9  8  0  0  0  0  0  0  0  0999 V2000
   -7.9040    3.9820   27.1177 C   0  0  0  0  0  0  0  0  0  0  0  0
   -9.0711    4.3164   27.0630 C   0  0  1  0  0  0  0  0  0  0  0  0
   -9.5294    5.4517   27.7215 C   0  0  0  0  0  0  0  0  0  0  0  0
   -9.9845    3.5634   26.2189 C   0  0  0  0  0  0  0  0  0  0  0  0
  -10.7684    4.0785   25.5182 C   0  0  0  0  0  0  0  0  0  0  0  0
   -7.3309    3.6529   28.2114 N   0  0  0  0  0  0  0  0  0  0  0  0
  -11.6364    3.3201   24.7075 C   0  0  0  0  0  0  0  0  0  0  0  0
  -11.4462    2.0099   24.6276 C   0  0  0  0  0  0  0  0  0  0  0  0
  -10.4900    1.4042   25.4161 C   0  0  0  0  0  0  0  0  0  0  0  0
  1  2  1  0
  2  3  1  6
  2  4  1  0
  4  5  2  3
  1  6  1  0
  5  7  1  0
  7  8  2  3
  8  9  1  0
M  END
$$$$
