No_3650-complexes_sdf/6BKW-FPZ/2024-09-17-14-21-01/
     RDKit          3D

 17 17  0  0  0  0  0  0  0  0999 V2000
   -7.9040    3.9820   27.1177 C   0  0  0  0  0  0  0  0  0  0  0  0
   -8.2057    2.8231   26.8733 C   0  0  0  0  0  0  0  0  0  0  0  0
   -9.2962    2.4021   26.1155 C   0  0  0  0  0  0  0  0  0  0  0  0
   -8.8403    4.9695   26.9329 C   0  0  0  0  0  0  0  0  0  0  0  0
   -9.9203    4.6961   26.0942 C   0  0  0  0  0  0  0  0  0  0  0  0
  -10.1704    3.4287   25.7979 C   0  0  0  0  0  0  0  0  0  0  0  0
   -8.4806    6.4134   27.2155 C   0  0  0  0  0  0  0  0  0  0  0  0
   -7.9821    7.3685   26.8445 N   0  0  0  0  0  0  0  0  0  0  0  0
   -9.7370    1.0469   25.7573 C   0  0  0  0  0  0  0  0  0  0  0  0
   -8.9358    0.3587   25.5253 N   0  0  0  0  0  0  0  0  0  0  0  0
   -7.8675    0.1468   26.0217 C   0  0  0  0  0  0  0  0  0  0  0  0
   -7.7625   -0.8925   26.9800 C   0  0  0  0  0  0  0  0  0  0  0  0
   -9.0239   -0.3283   24.1874 C   0  0  0  0  0  0  0  0  0  0  0  0
   -8.4859   -1.3589   27.6216 C   0  0  0  0  0  0  0  0  0  0  0  0
   -8.3091   -2.3727   28.6998 C   0  0  0  0  0  0  0  0  0  0  0  0
   -7.0025   -2.6822   28.9877 C   0  0  0  0  0  0  0  0  0  0  0  0
   -5.9873   -2.0947   28.3103 C   0  0  0  0  0  0  0  0  0  0  0  0
  4  7  1  0
  7  8  3  0
  3  9  1  0
  9 10  1  0
 10 11  1  0
 11 12  2  3
 10 13  1  0
 12 14  1  0
 14 15  2  3
 15 16  1  0
 16 17  2  0
  1  2  2  0
  2  3  1  0
  3  6  2  0
  6  5  1  0
  5  4  2  0
  4  1  1  0
M  END
$$$$
