No_3302-complexes_sdf/6BKW-FPZ/2024-09-17-14-21-01/
     RDKit          3D

 14 14  0  0  0  0  0  0  0  0999 V2000
   -7.9040    3.9820   27.1177 C   0  0  0  0  0  0  0  0  0  0  0  0
   -9.0711    4.3164   27.0630 C   0  0  0  0  0  0  0  0  0  0  0  0
   -9.5294    5.4517   27.7215 C   0  0  0  0  0  0  0  0  0  0  0  0
   -6.9328    4.7309   27.8881 C   0  0  0  0  0  0  0  0  0  0  0  0
   -7.3377    5.8421   28.5537 C   0  0  0  0  0  0  0  0  0  0  0  0
   -8.6411    6.2609   28.3972 C   0  0  0  0  0  0  0  0  0  0  0  0
  -10.0493    3.4953   26.2711 C   0  0  0  0  0  0  0  0  0  0  0  0
  -10.7037    2.5794   26.7787 C   0  0  2  0  0  0  0  0  0  0  0  0
  -10.7176    2.2759   28.0716 C   0  0  0  0  0  0  0  0  0  0  0  0
  -11.5176    1.6029   25.9443 C   0  0  2  0  0  0  0  0  0  0  0  0
  -10.7332    4.3060   25.2562 C   0  0  0  0  0  0  0  0  0  0  0  0
  -11.4791    1.7224   24.7675 F   0  0  0  0  0  0  0  0  0  0  0  0
  -12.6576    0.3647   26.6110 Cl  0  0  0  0  0  0  0  0  0  0  0  0
   -8.9419    2.6607   25.2193 C   0  0  0  0  0  0  0  0  0  0  0  0
  2  7  1  0
  7  8  1  0
  8  9  1  6
  8 10  1  0
  7 11  1  0
 10 12  1  6
 10 13  1  0
  7 14  1  0
  1  2  2  0
  2  3  1  0
  3  6  2  0
  6  5  1  0
  5  4  2  0
  4  1  1  0
M  END
$$$$
