No_3121-complexes_sdf/6BKW-FPZ/2024-09-17-14-21-01/
     RDKit          3D

 40 44  0  0  0  0  0  0  0  0999 V2000
   -7.2496    3.8871   27.4508 C   0  0  0  0  0  0  0  0  0  0  0  0
   -7.9379    4.9063   27.8518 C   0  0  0  0  0  0  0  0  0  0  0  0
   -9.3376    4.8647   27.7795 C   0  0  0  0  0  0  0  0  0  0  0  0
   -7.8544    2.6294   27.0414 C   0  0  0  0  0  0  0  0  0  0  0  0
   -9.2665    2.6175   27.0340 C   0  0  0  0  0  0  0  0  0  0  0  0
   -9.9836    3.7042   27.4150 C   0  0  0  0  0  0  0  0  0  0  0  0
   -7.0765    1.4847   26.7707 C   0  0  0  0  0  0  0  0  0  0  0  0
   -6.0002    1.1482   27.6822 C   0  0  0  0  0  0  0  0  0  0  0  0
   -5.4199    1.9624   28.5283 C   0  0  0  0  0  0  0  0  0  0  0  0
   -5.7586   -0.2594   27.7845 C   0  0  0  0  0  0  0  0  0  0  0  0
   -4.2336    1.4417   29.2213 C   0  0  0  0  0  0  0  0  0  0  0  0
   -6.5754   -1.1644   27.0091 C   0  0  0  0  0  0  0  0  0  0  0  0
   -3.9906    0.0810   29.3257 C   0  0  0  0  0  0  0  0  0  0  0  0
   -4.7322   -0.7242   28.5741 C   0  0  0  0  0  0  0  0  0  0  0  0
   -7.6058   -1.6798   27.7565 C   0  0  0  0  0  0  0  0  0  0  0  0
   -8.8306   -2.0603   27.2097 C   0  0  0  0  0  0  0  0  0  0  0  0
   -8.9650   -2.0815   25.8916 C   0  0  0  0  0  0  0  0  0  0  0  0
   -6.5146   -1.3823   25.7161 C   0  0  0  0  0  0  0  0  0  0  0  0
   -7.7897   -1.6812   25.0410 C   0  0  0  0  0  0  0  0  0  0  0  0
   -7.1840    6.4095   28.3075 Cl  0  0  0  0  0  0  0  0  0  0  0  0
  -11.4753    3.6356   27.4214 C   0  0  0  0  0  0  0  0  0  0  0  0
  -12.0443    3.2782   28.5381 C   0  0  0  0  0  0  0  0  0  0  0  0
  -13.4528    3.3006   28.8268 C   0  0  0  0  0  0  0  0  0  0  0  0
  -14.2140    3.8199   27.7668 C   0  0  0  0  0  0  0  0  0  0  0  0
  -13.6119    4.3039   26.6033 C   0  0  0  0  0  0  0  0  0  0  0  0
  -12.2171    4.3367   26.4596 C   0  0  0  0  0  0  0  0  0  0  0  0
   -2.8930   -0.3374   30.2005 C   0  0  0  0  0  0  0  0  0  0  0  0
   -3.2949   -1.3409   31.1811 C   0  0  0  0  0  0  0  0  0  0  0  0
   -2.4412   -1.7354   32.0748 C   0  0  0  0  0  0  0  0  0  0  0  0
   -2.2147   -2.1149   32.9913 C   0  0  0  0  0  0  0  0  0  0  0  0
   -3.3676   -2.4286   33.9385 C   0  0  0  0  0  0  0  0  0  0  0  0
   -4.6041   -2.1067   33.2175 C   0  0  0  0  0  0  0  0  0  0  0  0
   -4.6005   -1.3745   31.9083 C   0  0  0  0  0  0  0  0  0  0  0  0
  -14.1858    2.9404   29.9974 C   0  0  0  0  0  0  0  0  0  0  0  0
  -13.7239    2.9789   31.1203 C   0  0  0  0  0  0  0  0  0  0  0  0
  -14.2603    2.8387   32.3957 C   0  0  0  0  0  0  0  0  0  0  0  0
  -13.6164    3.2732   33.5424 C   0  0  0  0  0  0  0  0  0  0  0  0
  -13.5244    2.5030   34.6354 C   0  0  0  0  0  0  0  0  0  0  0  0
  -13.8467    1.2301   34.5528 C   0  0  0  0  0  0  0  0  0  0  0  0
  -14.5834    0.7589   33.4567 C   0  0  0  0  0  0  0  0  0  0  0  0
  4  7  1  0
  7  8  1  0
 10 12  1  0
  2 20  1  0
  6 21  1  0
 13 27  1  0
 27 28  1  0
 23 34  1  0
 34 35  2  3
 35 36  1  0
 36 37  1  0
 37 38  1  0
 38 39  2  3
 39 40  1  0
  1  2  2  0
  2  3  1  0
  3  6  2  0
  6  5  1  0
  5  4  2  0
  4  1  1  0
 12 15  2  0
 15 16  1  0
 16 17  2  0
 17 19  1  0
 19 18  2  0
 18 12  1  0
  8  9  2  0
  9 11  1  0
 11 13  2  0
 13 14  1  0
 14 10  2  0
 10  8  1  0
 28 29  2  0
 29 30  1  0
 30 31  2  0
 31 32  1  0
 32 33  2  0
 33 28  1  0
 21 22  2  0
 22 23  1  0
 23 24  2  0
 24 25  1  0
 25 26  2  0
 26 21  1  0
M  END
$$$$
