No_3767-complexes_sdf/6BKW-FPZ/2024-09-17-14-21-01/
     RDKit          3D

 40 44  0  0  0  0  0  0  0  0999 V2000
   -7.7129    4.2099   27.0854 C   0  0  0  0  0  0  0  0  0  0  0  0
   -8.2112    3.0637   26.9225 C   0  0  2  0  0  0  0  0  0  0  0  0
   -7.0021    4.5281   28.2396 C   0  0  0  0  0  0  0  0  0  0  0  0
   -9.4237    2.7810   26.2714 C   0  0  0  0  0  0  0  0  0  0  0  0
   -9.8781    3.7859   25.4663 C   0  0  2  0  0  0  0  0  0  0  0  0
   -9.3689    5.0975   25.5965 C   0  0  0  0  0  0  0  0  0  0  0  0
   -8.4784    5.3402   26.5448 C   0  0  0  0  0  0  0  0  0  0  0  0
  -10.9798    3.5389   24.5162 C   0  0  0  0  0  0  0  0  0  0  0  0
  -10.9019    2.5072   23.7226 C   0  0  0  0  0  0  0  0  0  0  0  0
  -11.6321    2.4143   22.6045 C   0  0  0  0  0  0  0  0  0  0  0  0
  -11.5625    1.3174   21.6529 C   0  0  0  0  0  0  0  0  0  0  0  0
  -10.5856    0.3206   21.9198 C   0  0  0  0  0  0  0  0  0  0  0  0
   -9.7439    0.4329   23.0171 C   0  0  0  0  0  0  0  0  0  0  0  0
   -9.8277    1.4799   23.8663 C   0  0  0  0  0  0  0  0  0  0  0  0
  -11.9686    4.3237   24.5360 O   0  0  0  0  0  0  0  0  0  0  0  0
   -8.7198   -0.6497   23.1484 C   0  0  0  0  0  0  0  0  0  0  0  0
   -7.7478   -0.3667   23.9661 C   0  0  0  0  0  0  0  0  0  0  0  0
   -6.7554   -1.3554   24.2394 C   0  0  0  0  0  0  0  0  0  0  0  0
   -6.6712   -2.4596   23.4904 C   0  0  0  0  0  0  0  0  0  0  0  0
   -7.6765   -2.6754   22.5172 C   0  0  0  0  0  0  0  0  0  0  0  0
   -8.6902   -1.7380   22.3424 C   0  0  0  0  0  0  0  0  0  0  0  0
   -7.5834    1.8294   27.5959 C   0  0  0  0  0  0  0  0  0  0  0  0
   -6.1535    1.7230   27.3388 C   0  0  0  0  0  0  0  0  0  0  0  0
   -5.5998    0.4775   27.8253 C   0  0  0  0  0  0  0  0  0  0  0  0
   -6.4046   -0.5954   28.1972 C   0  0  0  0  0  0  0  0  0  0  0  0
   -7.8193   -0.4467   28.1090 C   0  0  0  0  0  0  0  0  0  0  0  0
   -8.3388    0.7152   27.6635 C   0  0  0  0  0  0  0  0  0  0  0  0
   -4.1186    0.3892   27.9436 C   0  0  0  0  0  0  0  0  0  0  0  0
   -3.4977   -0.3383   28.5299 N   0  0  0  0  0  0  0  0  0  0  0  0
   -3.3771    1.1388   26.9846 N   0  0  0  0  0  0  0  0  0  0  0  0
   -3.9435   -1.1328   29.6112 C   0  0  0  0  0  0  0  0  0  0  0  0
   -4.0670   -2.5141   29.4766 C   0  0  0  0  0  0  0  0  0  0  0  0
   -4.9361   -3.1286   30.3074 C   0  0  0  0  0  0  0  0  0  0  0  0
   -5.4432   -2.5262   31.5158 C   0  0  0  0  0  0  0  0  0  0  0  0
   -5.1638   -1.1414   31.7351 C   0  0  0  0  0  0  0  0  0  0  0  0
   -4.4698   -0.3886   30.7370 C   0  0  0  0  0  0  0  0  0  0  0  0
   -5.7262   -0.3139   33.1202 Cl  0  0  0  0  0  0  0  0  0  0  0  0
   -7.6221   -3.8435   21.6107 C   0  0  0  0  0  0  0  0  0  0  0  0
   -7.7777   -4.8625   21.8544 C   0  0  0  0  0  0  0  0  0  0  0  0
   -7.3102   -3.4198   20.1667 C   0  0  0  0  0  0  0  0  0  0  0  0
  1  2  1  0
  1  3  2  0
  2  4  1  0
  4  5  1  0
  5  6  1  0
  1  7  1  0
  6  7  1  0
  5  8  1  1
  8  9  1  0
  8 15  2  0
 13 16  1  0
  2 22  1  1
 24 28  1  0
 28 29  2  3
 28 30  1  0
 29 31  1  0
 35 37  1  0
 20 38  1  0
 38 39  2  0
 38 40  1  0
 31 32  2  0
 32 33  1  0
 33 34  2  0
 34 35  1  0
 35 36  2  0
 36 31  1  0
 22 23  2  0
 23 24  1  0
 24 25  2  0
 25 26  1  0
 26 27  2  0
 27 22  1  0
  9 10  2  0
 10 11  1  0
 11 12  2  0
 12 13  1  0
 13 14  2  0
 14  9  1  0
 16 17  2  0
 17 18  1  0
 18 19  2  0
 19 20  1  0
 20 21  2  0
 21 16  1  0
M  END
$$$$
