No_300-complexes_sdf/6BKW-FPZ/2024-09-17-14-21-01/
     RDKit          3D

 21 23  0  0  0  0  0  0  0  0999 V2000
   -7.7129    4.2099   27.0854 C   0  0  0  0  0  0  0  0  0  0  0  0
   -8.9133    4.4736   27.0998 C   0  0  0  0  0  0  0  0  0  0  0  0
   -9.7937    3.7367   26.2091 C   0  0  0  0  0  0  0  0  0  0  0  0
   -7.2496    2.8647   26.8496 C   0  0  0  0  0  0  0  0  0  0  0  0
   -8.1891    1.9790   26.3454 C   0  0  0  0  0  0  0  0  0  0  0  0
  -11.0808    4.1954   25.9087 C   0  0  0  0  0  0  0  0  0  0  0  0
   -9.4405    2.4420   25.9289 C   0  0  0  0  0  0  0  0  0  0  0  0
  -12.1072    4.0840   26.8379 C   0  0  0  0  0  0  0  0  0  0  0  0
  -13.4542    4.1756   26.5092 C   0  0  0  0  0  0  0  0  0  0  0  0
  -13.7520    4.4097   25.1287 C   0  0  0  0  0  0  0  0  0  0  0  0
  -12.7188    4.4419   24.1694 C   0  0  0  0  0  0  0  0  0  0  0  0
  -11.3708    4.2760   24.4790 C   0  0  0  0  0  0  0  0  0  0  0  0
   -9.1147    6.0235   27.2344 C   0  0  0  0  0  0  0  0  0  0  0  0
   -7.7562    0.5922   26.0243 C   0  0  0  0  0  0  0  0  0  0  0  0
   -8.5046   -0.4451   26.5446 C   0  0  0  0  0  0  0  0  0  0  0  0
   -9.4110   -0.3274   27.3992 C   0  0  0  0  0  0  0  0  0  0  0  0
  -10.1379   -1.4223   28.0700 C   0  0  0  0  0  0  0  0  0  0  0  0
   -9.7092   -2.6366   27.6699 C   0  0  0  0  0  0  0  0  0  0  0  0
   -8.0600   -1.8020   26.2680 C   0  0  0  0  0  0  0  0  0  0  0  0
   -8.7360   -2.8614   26.8061 C   0  0  0  0  0  0  0  0  0  0  0  0
  -10.3811    4.3546   23.5147 C   0  0  0  0  0  0  0  0  0  0  0  0
  3  6  1  0
  2 13  1  0
  5 14  1  0
 14 15  1  0
 12 21  1  0
 15 16  2  0
 16 17  1  0
 17 18  2  0
 18 20  1  0
 20 19  2  0
 19 15  1  0
  1  2  2  0
  2  3  1  0
  3  7  2  0
  7  5  1  0
  5  4  2  0
  4  1  1  0
  6  8  2  0
  8  9  1  0
  9 10  2  0
 10 11  1  0
 11 12  2  0
 12  6  1  0
M  END
$$$$
