No_3539-complexes_sdf/6BKW-FPZ/2024-09-17-14-21-01/
     RDKit          3D

 20 23  0  0  0  0  0  0  0  0999 V2000
   -7.7129    4.2099   27.0854 C   0  0  0  0  0  0  0  0  0  0  0  0
   -7.7814    5.1722   27.8972 C   0  0  0  0  0  0  0  0  0  0  0  0
   -8.8776    3.8408   26.3416 C   0  0  0  0  0  0  0  0  0  0  0  0
   -9.9844    4.6492   26.4743 C   0  0  0  0  0  0  0  0  0  0  0  0
   -8.7830    6.1594   27.8870 C   0  0  0  0  0  0  0  0  0  0  0  0
   -9.9269    5.8191   27.1183 C   0  0  0  0  0  0  0  0  0  0  0  0
   -8.6589    2.6501   25.6658 N   0  0  0  0  0  0  0  0  0  0  0  0
   -8.3450    1.4958   26.3012 C   0  0  0  0  0  0  0  0  0  0  0  0
   -8.1336    0.3545   25.5415 C   0  0  0  0  0  0  0  0  0  0  0  0
   -9.3522    2.4767   24.4414 C   0  0  0  0  0  0  0  0  0  0  0  0
   -9.3042    1.3543   23.7437 C   0  0  0  0  0  0  0  0  0  0  0  0
   -8.6634    0.2705   24.3028 C   0  0  0  0  0  0  0  0  0  0  0  0
   -9.8091    1.3149   22.3663 C   0  0  0  0  0  0  0  0  0  0  0  0
   -9.8043    0.1720   21.6462 C   0  0  0  0  0  0  0  0  0  0  0  0
   -9.0646   -0.9604   22.2337 C   0  0  0  0  0  0  0  0  0  0  0  0
   -8.5383   -0.8946   23.5032 C   0  0  0  0  0  0  0  0  0  0  0  0
   -8.9813   -2.1706   21.3723 C   0  0  0  0  0  0  0  0  0  0  0  0
   -9.3866   -2.1916   20.1816 C   0  0  0  0  0  0  0  0  0  0  0  0
  -10.1521   -1.0322   19.6623 C   0  0  0  0  0  0  0  0  0  0  0  0
  -10.2779    0.0983   20.3642 C   0  0  0  0  0  0  0  0  0  0  0  0
  3  7  1  0
  7  8  1  0
  7 10  1  0
  9 12  1  0
  8  9  1  0
 11 10  1  0
 15 17  1  0
 17 18  2  0
 18 19  1  0
 19 20  2  0
 20 14  1  0
 11 12  2  0
 12 16  1  0
 16 15  2  0
 15 14  1  0
 14 13  2  0
 13 11  1  0
  1  2  2  0
  2  5  1  0
  5  6  2  0
  6  4  1  0
  4  3  2  0
  3  1  1  0
M  END
$$$$
