No_3377-complexes_sdf/6BKW-FPZ/2024-09-17-14-21-01/
     RDKit          3D

 14 15  0  0  0  0  0  0  0  0999 V2000
   -7.7129    4.2099   27.0854 C   0  0  0  0  0  0  0  0  0  0  0  0
   -8.2112    3.0637   26.9225 C   0  0  0  0  0  0  0  0  0  0  0  0
   -7.0021    4.5281   28.2396 C   0  0  0  0  0  0  0  0  0  0  0  0
   -9.4237    2.7810   26.2714 C   0  0  0  0  0  0  0  0  0  0  0  0
   -9.8631    3.8236   25.4749 C   0  0  0  0  0  0  0  0  0  0  0  0
   -9.3184    5.1096   25.5970 C   0  0  0  0  0  0  0  0  0  0  0  0
   -8.4527    5.3549   26.5253 C   0  0  0  0  0  0  0  0  0  0  0  0
  -10.9806    3.5713   24.5093 C   0  0  0  0  0  0  0  0  0  0  0  0
  -10.8585    4.0171   23.2565 C   0  0  0  0  0  0  0  0  0  0  0  0
  -11.8436    3.8304   22.2789 C   0  0  0  0  0  0  0  0  0  0  0  0
  -13.0007    3.1574   22.6456 C   0  0  0  0  0  0  0  0  0  0  0  0
  -12.0769    2.8240   24.6501 C   0  0  0  0  0  0  0  0  0  0  0  0
  -13.0910    2.6760   23.8648 C   0  0  0  0  0  0  0  0  0  0  0  0
   -6.8919    5.8060   28.6191 N   0  0  0  0  0  0  0  0  0  0  0  0
  5  8  1  0
  3 14  1  0
  3  1  1  0
  1  2  2  0
  2  4  1  0
  4  5  2  0
  5  6  1  0
  6  7  2  0
  7  1  1  0
  8  9  2  0
  9 10  1  0
 10 11  2  0
 11 13  1  0
 13 12  2  0
 12  8  1  0
M  END
$$$$
