No_3968-complexes_sdf/6BKW-FPZ/2024-09-17-14-21-01/
     RDKit          3D

 23 25  0  0  0  0  0  0  0  0999 V2000
   -7.7129    4.2099   27.0854 C   0  0  0  0  0  0  0  0  0  0  0  0
   -7.7814    5.1722   27.8972 C   0  0  0  0  0  0  0  0  0  0  0  0
   -8.8998    3.8713   26.3707 C   0  0  0  0  0  0  0  0  0  0  0  0
   -9.9938    4.6774   26.5446 C   0  0  0  0  0  0  0  0  0  0  0  0
   -8.7789    6.1536   27.9256 C   0  0  0  0  0  0  0  0  0  0  0  0
   -9.9428    5.8398   27.2296 C   0  0  0  0  0  0  0  0  0  0  0  0
   -8.7183    2.6009   25.5951 C   0  0  0  0  0  0  0  0  0  0  0  0
   -8.3583    1.5158   26.2858 N   0  0  0  0  0  0  0  0  0  0  0  0
   -9.0416    0.5412   26.6520 C   0  0  0  0  0  0  0  0  0  0  0  0
   -8.4601   -0.5087   27.4378 C   0  0  0  0  0  0  0  0  0  0  0  0
   -7.1128   -0.3357   27.7934 C   0  0  0  0  0  0  0  0  0  0  0  0
   -6.3588    0.7573   27.4361 C   0  0  1  0  0  0  0  0  0  0  0  0
   -6.9560    1.7612   26.7137 C   0  0  0  0  0  0  0  0  0  0  0  0
   -4.9912    0.8924   27.9349 C   0  0  0  0  0  0  0  0  0  0  0  0
   -4.2162    1.7656   27.6004 C   0  0  0  0  0  0  0  0  0  0  0  0
   -4.5831   -0.1288   28.9396 C   0  0  0  0  0  0  0  0  0  0  0  0
   -3.7819   -0.8849   28.7489 C   0  0  0  0  0  0  0  0  0  0  0  0
   -3.3579   -1.7491   29.8746 C   0  0  0  0  0  0  0  0  0  0  0  0
   -4.0939   -1.7742   31.0332 C   0  0  0  0  0  0  0  0  0  0  0  0
   -5.1025   -0.8753   31.2227 C   0  0  0  0  0  0  0  0  0  0  0  0
   -5.3576   -0.0093   30.1981 C   0  0  0  0  0  0  0  0  0  0  0  0
   -5.9823   -0.8085   32.6725 Cl  0  0  0  0  0  0  0  0  0  0  0  0
  -11.3829    4.3025   25.6341 Cl  0  0  0  0  0  0  0  0  0  0  0  0
  3  7  1  0
  7  8  1  0
  8  9  1  0
 10 11  1  0
  8 13  1  0
 12 13  1  0
 12 14  1  1
 14 15  1  0
 14 16  1  0
 20 22  1  0
  4 23  1  0
  9 10  1  0
 11 12  1  0
  1  2  2  0
  2  5  1  0
  5  6  2  0
  6  4  1  0
  4  3  2  0
  3  1  1  0
 16 17  2  0
 17 18  1  0
 18 19  2  0
 19 20  1  0
 20 21  2  0
 21 16  1  0
M  END
$$$$
