No_3457-complexes_sdf/6BKW-FPZ/2024-09-17-14-21-01/
     RDKit          3D

 10 11  0  0  0  0  0  0  0  0999 V2000
   -7.7129    4.2099   27.0854 C   0  0  0  0  0  0  0  0  0  0  0  0
   -7.7814    5.1722   27.8972 C   0  0  0  0  0  0  0  0  0  0  0  0
   -7.3155    2.9700   27.6145 C   0  0  0  0  0  0  0  0  0  0  0  0
   -7.1760    1.9119   26.6708 C   0  0  0  0  0  0  0  0  0  0  0  0
   -8.2064    1.7989   25.7513 C   0  0  0  0  0  0  0  0  0  0  0  0
   -9.0507    2.9056   25.4782 C   0  0  0  0  0  0  0  0  0  0  0  0
   -8.8423    4.1351   26.1924 C   0  0  0  0  0  0  0  0  0  0  0  0
   -8.3532    6.4473   27.6010 N   0  0  0  0  0  0  0  0  0  0  0  0
   -9.2870    6.5037   26.5825 C   0  0  0  0  0  0  0  0  0  0  0  0
   -9.5249    5.3348   25.8259 C   0  0  0  0  0  0  0  0  0  0  0  0
  1  2  2  0
  2  8  1  0
  8  9  2  0
  9 10  1  0
 10  7  2  0
  1  3  1  0
  3  4  2  0
  4  5  1  0
  5  6  2  0
  6  7  1  0
  7  1  1  0
M  END
$$$$
