No_3152-complexes_sdf/6BKW-FPZ/2024-09-17-14-21-01/
     RDKit          3D

 17 18  0  0  0  0  0  0  0  0999 V2000
   -7.9040    3.9820   27.1177 C   0  0  0  0  0  0  0  0  0  0  0  0
   -7.8663    4.8694   27.9238 C   0  0  0  0  0  0  0  0  0  0  0  0
   -9.0491    3.8523   26.2542 C   0  0  0  0  0  0  0  0  0  0  0  0
   -8.7661    5.9491   27.9690 C   0  0  0  0  0  0  0  0  0  0  0  0
   -9.9295    4.8502   26.2323 C   0  0  0  0  0  0  0  0  0  0  0  0
   -9.8077    5.9288   27.0933 C   0  0  0  0  0  0  0  0  0  0  0  0
   -6.8002    2.6256   27.2024 Cl  0  0  0  0  0  0  0  0  0  0  0  0
   -9.1191    2.6984   25.2948 C   0  0  0  0  0  0  0  0  0  0  0  0
   -8.8971    1.4743   25.7014 C   0  0  0  0  0  0  0  0  0  0  0  0
   -9.8704    2.9991   24.0999 C   0  0  0  0  0  0  0  0  0  0  0  0
   -9.1294    0.4204   24.8338 C   0  0  0  0  0  0  0  0  0  0  0  0
  -10.0451    1.9133   23.2371 C   0  0  0  0  0  0  0  0  0  0  0  0
  -10.6165    2.1339   21.9073 C   0  0  0  0  0  0  0  0  0  0  0  0
   -9.6358    0.6381   23.5571 C   0  0  0  0  0  0  0  0  0  0  0  0
  -10.3403    3.2128   21.3330 N   0  0  0  0  0  0  0  0  0  0  0  0
  -10.8576    1.1434   21.1970 O   0  0  0  0  0  0  0  0  0  0  0  0
  -10.9284    3.8158   20.4136 C   0  0  0  0  0  0  0  0  0  0  0  0
  1  7  1  0
  3  8  1  0
 12 13  1  0
 13 15  1  0
 13 16  2  0
 15 17  1  0
  8  9  2  0
  9 11  1  0
 11 14  2  0
 14 12  1  0
 12 10  2  0
 10  8  1  0
  1  2  2  0
  2  4  1  0
  4  6  2  0
  6  5  1  0
  5  3  2  0
  3  1  1  0
M  END
$$$$
