No_3892-complexes_sdf/6BKW-FPZ/2024-09-17-14-21-01/
     RDKit          3D

 22 24  0  0  0  0  0  0  0  0999 V2000
   -7.9040    3.9820   27.1177 C   0  0  0  0  0  0  0  0  0  0  0  0
   -9.0711    4.3164   27.0630 C   0  0  0  0  0  0  0  0  0  0  0  0
   -9.8698    3.9665   25.9495 C   0  0  0  0  0  0  0  0  0  0  0  0
   -7.4046    2.7946   26.4568 C   0  0  0  0  0  0  0  0  0  0  0  0
   -8.3659    2.1310   25.6816 C   0  0  0  0  0  0  0  0  0  0  0  0
   -9.5390    2.7825   25.4030 C   0  0  0  0  0  0  0  0  0  0  0  0
   -6.7557    4.7328   28.3272 P   0  0  0  0  0  0  0  0  0  0  0  0
   -6.0302    4.0059   28.9189 O   0  0  0  0  0  0  0  0  0  0  0  0
   -7.5864    5.7514   28.3072 O   0  0  0  0  0  0  0  0  0  0  0  0
   -5.8883    5.3646   27.1191 O   0  0  0  0  0  0  0  0  0  0  0  0
  -10.5284    2.3481   24.3420 C   0  0  0  0  0  0  0  0  0  0  0  0
  -10.2841    2.0713   23.3046 C   0  0  0  0  0  0  0  0  0  0  0  0
  -11.1482    1.6399   22.1720 C   0  0  0  0  0  0  0  0  0  0  0  0
  -12.4784    1.6551   22.4843 C   0  0  0  0  0  0  0  0  0  0  0  0
  -12.0024    2.3861   24.4743 C   0  0  0  0  0  0  0  0  0  0  0  0
  -12.8826    2.0822   23.6410 C   0  0  0  0  0  0  0  0  0  0  0  0
  -13.4156    1.2400   21.3644 C   0  0  0  0  0  0  0  0  0  0  0  0
  -14.6262    1.3399   21.3979 C   0  0  0  0  0  0  0  0  0  0  0  0
  -15.4719    0.8881   20.3102 C   0  0  0  0  0  0  0  0  0  0  0  0
  -14.8262    0.3587   19.1978 C   0  0  0  0  0  0  0  0  0  0  0  0
  -12.8949    0.6848   20.0763 C   0  0  0  0  0  0  0  0  0  0  0  0
  -13.5377    0.2862   19.0990 C   0  0  0  0  0  0  0  0  0  0  0  0
  1  7  1  0
  7  8  2  0
  7  9  1  0
  7 10  1  0
  6 11  1  0
 14 17  1  0
 17 18  2  0
 18 19  1  0
 19 20  2  0
 20 22  1  0
 22 21  2  0
 21 17  1  0
  1  2  2  0
  2  3  1  0
  3  6  2  0
  6  5  1  0
  5  4  2  0
  4  1  1  0
 11 12  2  0
 12 13  1  0
 13 14  2  0
 14 16  1  0
 16 15  2  0
 15 11  1  0
M  END
$$$$
