No_3754-complexes_sdf/6BKW-FPZ/2024-09-17-14-21-01/
     RDKit          3D

 33 35  0  0  0  0  0  0  0  0999 V2000
   -7.2496    3.8871   27.4508 C   0  0  0  0  0  0  0  0  0  0  0  0
   -7.9379    4.9063   27.8518 C   0  0  0  0  0  0  0  0  0  0  0  0
   -9.3460    4.8223   27.8695 C   0  0  0  0  0  0  0  0  0  0  0  0
   -7.8628    2.6163   27.1065 C   0  0  0  0  0  0  0  0  0  0  0  0
   -9.2787    2.5744   27.1970 C   0  0  0  0  0  0  0  0  0  0  0  0
  -10.0108    3.6770   27.6340 C   0  0  0  0  0  0  0  0  0  0  0  0
  -11.4834    3.5674   27.7432 C   0  0  0  0  0  0  0  0  0  0  0  0
  -12.3295    3.8838   27.2730 C   0  0  0  0  0  0  0  0  0  0  0  0
  -13.7775    3.8550   27.5201 C   0  0  0  0  0  0  0  0  0  0  0  0
  -11.8811    2.7541   28.9768 C   0  0  0  0  0  0  0  0  0  0  0  0
  -13.1198    2.5435   29.3867 C   0  0  0  0  0  0  0  0  0  0  0  0
  -14.1235    3.1476   28.6319 C   0  0  0  0  0  0  0  0  0  0  0  0
   -7.1096    1.4670   26.7660 C   0  0  0  0  0  0  0  0  0  0  0  0
   -6.0585    1.0678   27.5417 N   0  0  0  0  0  0  0  0  0  0  0  0
   -5.3696   -0.0550   27.4257 C   0  0  0  0  0  0  0  0  0  0  0  0
   -4.1583   -0.0337   28.0545 C   0  0  0  0  0  0  0  0  0  0  0  0
   -4.0481    0.7501   29.2041 C   0  0  0  0  0  0  0  0  0  0  0  0
   -3.0251   -0.6790   27.5746 C   0  0  0  0  0  0  0  0  0  0  0  0
   -7.1529    6.4168   28.2077 Cl  0  0  0  0  0  0  0  0  0  0  0  0
   -7.5427    0.7449   25.8920 O   0  0  0  0  0  0  0  0  0  0  0  0
  -15.5891    2.9757   28.9519 C   0  0  0  0  0  0  0  0  0  0  0  0
  -16.0278    2.3579   29.8599 C   0  0  0  0  0  0  0  0  0  0  0  0
  -16.7249    2.0702   30.5308 C   0  0  0  0  0  0  0  0  0  0  0  0
  -17.3545    1.7053   31.6290 C   0  0  0  0  0  0  0  0  0  0  0  0
  -17.5953    1.3126   32.7029 C   0  0  0  0  0  0  0  0  0  0  0  0
  -16.8017    0.9359   33.6869 C   0  0  0  0  0  0  0  0  0  0  0  0
  -15.4196    1.1682   33.7323 C   0  0  0  0  0  0  0  0  0  0  0  0
  -14.5961    0.6256   34.7653 C   0  0  0  0  0  0  0  0  0  0  0  0
  -13.2006    1.0101   34.8251 C   0  0  0  0  0  0  0  0  0  0  0  0
  -12.8649    2.2270   34.1960 C   0  0  0  0  0  0  0  0  0  0  0  0
  -13.7190    2.8253   33.2664 C   0  0  0  0  0  0  0  0  0  0  0  0
  -14.8312    1.9715   32.7757 C   0  0  0  0  0  0  0  0  0  0  0  0
  -18.4728    1.9900   30.8112 F   0  0  0  0  0  0  0  0  0  0  0  0
  6  7  1  0
  4 13  1  0
 13 14  1  0
 14 15  1  0
 15 16  1  0
 16 17  1  0
 16 18  1  0
  2 19  1  0
 13 20  2  0
 12 21  1  0
 21 22  2  3
 22 23  1  0
 23 24  2  3
 24 25  1  0
 25 26  2  3
 26 27  1  0
 24 33  1  0
 27 28  2  0
 28 29  1  0
 29 30  2  0
 30 31  1  0
 31 32  2  0
 32 27  1  0
  1  2  2  0
  2  3  1  0
  3  6  2  0
  6  5  1  0
  5  4  2  0
  4  1  1  0
  7  8  2  0
  8  9  1  0
  9 12  2  0
 12 11  1  0
 11 10  2  0
 10  7  1  0
M  END
$$$$
