No_3611-complexes_sdf/6BKW-FPZ/2024-09-17-14-21-01/
     RDKit          3D

 17 18  0  0  0  0  0  0  0  0999 V2000
   -7.2496    3.8871   27.4508 C   0  0  0  0  0  0  0  0  0  0  0  0
   -7.6161    2.7143   27.1523 C   0  0  0  0  0  0  0  0  0  0  0  0
   -8.6212    2.2239   26.4073 C   0  0  0  0  0  0  0  0  0  0  0  0
   -8.2540    4.9237   27.1711 C   0  0  0  0  0  0  0  0  0  0  0  0
   -9.3709    4.6018   26.4511 C   0  0  0  0  0  0  0  0  0  0  0  0
   -9.5922    3.3274   26.0949 C   0  0  0  0  0  0  0  0  0  0  0  0
   -7.8634    6.5495   27.6479 Cl  0  0  0  0  0  0  0  0  0  0  0  0
   -8.8780    0.9126   26.0627 C   0  0  0  0  0  0  0  0  0  0  0  0
   -9.2872    0.0246   26.9561 C   0  0  0  0  0  0  0  0  0  0  0  0
   -9.5583   -1.0451   27.0668 C   0  0  0  0  0  0  0  0  0  0  0  0
  -10.0394   -1.8324   28.2839 C   0  0  0  0  0  0  0  0  0  0  0  0
   -8.6373    0.4642   24.7617 C   0  0  0  0  0  0  0  0  0  0  0  0
   -8.8272   -0.9441   24.5955 C   0  0  0  0  0  0  0  0  0  0  0  0
   -9.3606   -1.6857   25.6995 C   0  0  0  0  0  0  0  0  0  0  0  0
   -9.1260   -2.4808   29.0031 C   0  0  0  0  0  0  0  0  0  0  0  0
   -9.5603   -3.1105   30.2298 C   0  0  0  0  0  0  0  0  0  0  0  0
  -10.9132   -3.0017   30.5817 C   0  0  0  0  0  0  0  0  0  0  0  0
  4  7  1  0
  3  8  1  0
 11 15  1  0
 15 16  2  3
 16 17  1  0
 11 10  1  0
  8  9  2  0
  9 10  1  0
 10 14  2  0
 14 13  1  0
 13 12  2  0
 12  8  1  0
  1  2  2  0
  2  3  1  0
  3  6  2  0
  6  5  1  0
  5  4  2  0
  4  1  1  0
M  END
$$$$
