No_3612-complexes_sdf/6BKW-FPZ/2024-09-17-14-21-01/
     RDKit          3D

  6  5  0  0  0  0  0  0  0  0999 V2000
   -7.7129    4.2099   27.0854 C   0  0  0  0  0  0  0  0  0  0  0  0
   -8.2112    3.0637   26.9225 C   0  0  0  0  0  0  0  0  0  0  0  0
   -8.1503    1.8630   27.3963 C   0  0  0  0  0  0  0  0  0  0  0  0
   -8.2334    5.4770   26.7768 C   0  0  0  0  0  0  0  0  0  0  0  0
   -9.3201    5.5181   25.8840 C   0  0  0  0  0  0  0  0  0  0  0  0
   -8.8703    0.7158   27.0223 C   0  0  0  0  0  0  0  0  0  0  0  0
  1  2  3  0
  2  3  1  0
  1  4  1  0
  4  5  2  0
  3  6  1  0
M  END
$$$$
