No_3493-complexes_sdf/6BKW-FPZ/2024-09-17-14-21-01/
     RDKit          3D

 25 27  0  0  0  0  0  0  0  0999 V2000
   -7.2496    3.8871   27.4508 C   0  0  0  0  0  0  0  0  0  0  0  0
   -8.5096    4.0291   27.2770 C   0  0  0  0  0  0  0  0  0  0  0  0
   -9.3451    2.8786   26.9046 C   0  0  0  0  0  0  0  0  0  0  0  0
   -6.6065    2.5680   27.5073 C   0  0  0  0  0  0  0  0  0  0  0  0
   -7.4233    1.4858   27.2402 C   0  0  0  0  0  0  0  0  0  0  0  0
   -8.7362    1.6525   26.9989 C   0  0  0  0  0  0  0  0  0  0  0  0
   -8.9197    5.4825   27.2215 C   0  0  0  0  0  0  0  0  0  0  0  0
   -8.1886    6.4304   27.5463 N   0  0  0  0  0  0  0  0  0  0  0  0
  -10.2437    5.6385   27.3265 O   0  0  0  0  0  0  0  0  0  0  0  0
   -6.8081    0.1718   27.2443 C   0  0  0  0  0  0  0  0  0  0  0  0
   -5.5700   -0.0037   27.7945 C   0  0  0  0  0  0  0  0  0  0  0  0
   -4.8528   -1.2572   27.7844 C   0  0  0  0  0  0  0  0  0  0  0  0
   -5.5163   -2.2594   27.0732 C   0  0  0  0  0  0  0  0  0  0  0  0
   -7.2078   -0.9717   26.6313 C   0  0  0  0  0  0  0  0  0  0  0  0
   -6.6681   -2.1197   26.5320 C   0  0  0  0  0  0  0  0  0  0  0  0
   -8.5282    7.8349   27.2343 C   0  0  0  0  0  0  0  0  0  0  0  0
   -3.5444   -1.3477   28.4645 C   0  0  1  0  0  0  0  0  0  0  0  0
   -3.5781   -1.6490   29.8295 C   0  0  0  0  0  0  0  0  0  0  0  0
   -3.8065   -0.5161   30.6347 C   0  0  0  0  0  0  0  0  0  0  0  0
   -3.9007   -0.6310   32.1279 C   0  0  0  0  0  0  0  0  0  0  0  0
   -3.6835   -1.8567   32.6968 C   0  0  0  0  0  0  0  0  0  0  0  0
   -3.4087   -2.9386   31.8567 C   0  0  0  0  0  0  0  0  0  0  0  0
   -3.3292   -2.8092   30.4960 C   0  0  0  0  0  0  0  0  0  0  0  0
   -2.3648   -1.2267   27.7441 C   0  0  0  0  0  0  0  0  0  0  0  0
   -2.2402   -0.7129   26.7826 C   0  0  0  0  0  0  0  0  0  0  0  0
  2  7  1  0
  7  8  2  3
  7  9  1  0
  5 10  1  0
  8 16  1  0
 12 17  1  0
 17 18  1  0
 17 24  1  6
 24 25  1  0
 18 19  2  0
 19 20  1  0
 20 21  2  0
 21 22  1  0
 22 23  2  0
 23 18  1  0
  1  2  2  0
  2  3  1  0
  3  6  2  0
  6  5  1  0
  5  4  2  0
  4  1  1  0
 10 11  2  0
 11 12  1  0
 12 13  2  0
 13 15  1  0
 15 14  2  0
 14 10  1  0
M  END
$$$$
