No_3222-complexes_sdf/6BKW-FPZ/2024-09-17-14-21-01/
     RDKit          3D

 20 22  0  0  0  0  0  0  0  0999 V2000
   -7.9040    3.9820   27.1177 C   0  0  0  0  0  0  0  0  0  0  0  0
   -9.0711    4.3164   27.0630 C   0  0  0  0  0  0  0  0  0  0  0  0
  -10.0395    3.8218   27.1938 C   0  0  0  0  0  0  0  0  0  0  0  0
   -7.6424    2.5858   27.3610 C   0  0  0  0  0  0  0  0  0  0  0  0
   -8.7741    1.7889   27.4566 C   0  0  0  0  0  0  0  0  0  0  0  0
  -10.0155    2.3581   27.4300 C   0  0  0  0  0  0  0  0  0  0  0  0
   -8.9083    5.9664   26.8219 C   0  0  0  0  0  0  0  0  0  0  0  0
   -8.1552    6.7832   27.5596 C   0  0  0  0  0  0  0  0  0  0  0  0
   -8.0093    8.1336   27.0672 C   0  0  0  0  0  0  0  0  0  0  0  0
   -6.4692    1.9511   27.4656 F   0  0  0  0  0  0  0  0  0  0  0  0
   -8.9271    8.4098   26.1033 N   0  0  0  0  0  0  0  0  0  0  0  0
   -9.4778    7.3018   25.5622 C   0  0  0  0  0  0  0  0  0  0  0  0
  -11.2550    1.5628   27.6544 C   0  0  0  0  0  0  0  0  0  0  0  0
  -12.1179    1.9746   28.5035 N   0  0  0  0  0  0  0  0  0  0  0  0
  -12.0715    3.0081   29.1530 C   0  0  0  0  0  0  0  0  0  0  0  0
  -13.2059    0.9999   28.8861 C   0  0  0  0  0  0  0  0  0  0  0  0
  -11.2433    0.4437   27.1246 O   0  0  0  0  0  0  0  0  0  0  0  0
  -13.1925    3.3642   30.2052 C   0  0  0  0  0  0  0  0  0  0  0  0
  -14.2076    1.3825   29.7947 C   0  0  0  0  0  0  0  0  0  0  0  0
  -14.1167    2.5662   30.4714 C   0  0  0  0  0  0  0  0  0  0  0  0
  2  7  1  0
  7  8  2  0
  8  9  1  0
  4 10  1  0
  9 11  2  0
  7 12  1  0
 11 12  1  0
  6 13  1  0
 13 14  1  0
 14 15  1  0
 14 16  1  0
 13 17  2  0
 18 20  1  0
 19 20  1  0
 15 18  1  0
 19 16  1  0
  1  2  2  0
  2  3  1  0
  3  6  2  0
  6  5  1  0
  5  4  2  0
  4  1  1  0
M  END
$$$$
