No_3861-complexes_sdf/6BKW-FPZ/2024-09-17-14-21-01/
     RDKit          3D

 19 20  0  0  0  0  0  0  0  0999 V2000
   -7.9040    3.9820   27.1177 C   0  0  0  0  0  0  0  0  0  0  0  0
   -8.2057    2.8231   26.8733 C   0  0  0  0  0  0  0  0  0  0  0  0
   -8.7695    5.0740   26.7916 C   0  0  0  0  0  0  0  0  0  0  0  0
   -8.4337    6.4678   27.0913 C   0  0  2  0  0  0  0  0  0  0  0  0
   -9.3742    2.4311   26.2346 C   0  0  0  0  0  0  0  0  0  0  0  0
  -10.2395    3.4267   25.8887 C   0  0  0  0  0  0  0  0  0  0  0  0
   -9.9567    4.7548   26.1374 C   0  0  0  0  0  0  0  0  0  0  0  0
   -8.1162    6.9119   28.5487 Cl  0  0  0  0  0  0  0  0  0  0  0  0
   -8.5222    7.4757   26.0824 C   0  0  0  0  0  0  0  0  0  0  0  0
   -7.2503    1.6688   27.2760 C   0  0  0  0  0  0  0  0  0  0  0  0
   -6.0088    1.9678   27.8803 C   0  0  0  0  0  0  0  0  0  0  0  0
   -5.1190    0.8991   28.2201 C   0  0  0  0  0  0  0  0  0  0  0  0
   -5.4912   -0.3958   28.0808 C   0  0  0  0  0  0  0  0  0  0  0  0
   -7.3571    0.2678   27.2292 C   0  0  0  0  0  0  0  0  0  0  0  0
   -6.6744   -0.6643   27.6047 C   0  0  0  0  0  0  0  0  0  0  0  0
   -4.5335   -1.4363   28.6369 C   0  0  0  0  0  0  0  0  0  0  0  0
   -3.5043   -1.4315   28.1657 F   0  0  0  0  0  0  0  0  0  0  0  0
   -4.4261   -1.1890   30.0066 F   0  0  0  0  0  0  0  0  0  0  0  0
   -5.1383   -2.6288   28.5684 F   0  0  0  0  0  0  0  0  0  0  0  0
  3  4  1  0
  4  8  1  0
  4  9  1  1
  2 10  1  0
 13 16  1  0
 16 17  1  0
 16 18  1  0
 16 19  1  0
 10 11  2  0
 11 12  1  0
 12 13  2  0
 13 15  1  0
 15 14  2  0
 14 10  1  0
  1  2  2  0
  2  5  1  0
  5  6  2  0
  6  7  1  0
  7  3  2  0
  3  1  1  0
M  END
$$$$
