No_3375-complexes_sdf/6BKW-FPZ/2024-09-17-14-21-01/
     RDKit          3D

 16 18  0  0  0  0  0  0  0  0999 V2000
   -7.2496    3.8871   27.4508 C   0  0  0  0  0  0  0  0  0  0  0  0
   -8.5096    4.0291   27.2770 C   0  0  0  0  0  0  0  0  0  0  0  0
   -9.3451    2.8786   26.9046 C   0  0  0  0  0  0  0  0  0  0  0  0
   -8.7138    1.7135   26.7541 C   0  0  0  0  0  0  0  0  0  0  0  0
   -6.3951    5.0209   27.9628 C   0  0  0  0  0  0  0  0  0  0  0  0
   -7.3247    1.5526   27.0783 C   0  0  0  0  0  0  0  0  0  0  0  0
   -6.5681    2.6436   27.5102 C   0  0  0  0  0  0  0  0  0  0  0  0
   -9.2087    5.3103   27.3863 C   0  0  0  0  0  0  0  0  0  0  0  0
   -8.4352    6.5349   27.2203 C   0  0  0  0  0  0  0  0  0  0  0  0
   -7.0607    6.4153   27.8304 C   0  0  0  0  0  0  0  0  0  0  0  0
  -10.7398    2.9706   26.5654 C   0  0  0  0  0  0  0  0  0  0  0  0
  -11.5555    3.1809   27.2905 C   0  0  0  0  0  0  0  0  0  0  0  0
  -12.9834    3.3802   27.0665 C   0  0  0  0  0  0  0  0  0  0  0  0
  -11.0464    2.9362   25.1805 C   0  0  0  0  0  0  0  0  0  0  0  0
  -12.3602    3.1760   24.7263 C   0  0  0  0  0  0  0  0  0  0  0  0
  -13.3058    3.4013   25.6947 C   0  0  0  0  0  0  0  0  0  0  0  0
  1  5  1  0
  2  8  1  0
  8  9  1  0
  5 10  1  0
  9 10  1  0
  3 11  1  0
  1  2  2  0
  2  3  1  0
  3  4  2  0
  4  6  1  0
  6  7  2  0
  7  1  1  0
 11 12  2  0
 12 13  1  0
 13 16  2  0
 16 15  1  0
 15 14  2  0
 14 11  1  0
M  END
$$$$
