No_3010-complexes_sdf/6BKW-FPZ/2024-09-17-14-21-01/
     RDKit          3D

 25 28  0  0  0  0  0  0  0  0999 V2000
   -7.2496    3.8871   27.4508 C   0  0  0  0  0  0  0  0  0  0  0  0
   -7.9379    4.9063   27.8518 C   0  0  0  0  0  0  0  0  0  0  0  0
   -9.3460    4.8223   27.8695 C   0  0  0  0  0  0  0  0  0  0  0  0
   -7.8628    2.6163   27.1065 C   0  0  0  0  0  0  0  0  0  0  0  0
   -9.2787    2.5744   27.1970 C   0  0  0  0  0  0  0  0  0  0  0  0
  -10.0108    3.6770   27.6340 C   0  0  0  0  0  0  0  0  0  0  0  0
  -11.4855    3.5731   27.7420 C   0  0  0  0  0  0  0  0  0  0  0  0
  -11.9299    2.8562   28.8221 C   0  0  0  0  0  0  0  0  0  0  0  0
  -13.2938    2.7194   29.1618 C   0  0  0  0  0  0  0  0  0  0  0  0
  -13.6781    1.8871   30.2069 C   0  0  0  0  0  0  0  0  0  0  0  0
  -14.1659    3.7646   28.6899 C   0  0  0  0  0  0  0  0  0  0  0  0
  -13.7570    4.5696   27.6329 C   0  0  0  0  0  0  0  0  0  0  0  0
  -12.3194    4.6226   27.2625 C   0  0  0  0  0  0  0  0  0  0  0  0
   -7.1338    1.5842   26.7940 O   0  0  0  0  0  0  0  0  0  0  0  0
   -6.2181    1.1208   27.7087 C   0  0  0  0  0  0  0  0  0  0  0  0
   -5.3670    0.0123   27.2748 C   0  0  0  0  0  0  0  0  0  0  0  0
   -5.6431   -0.7956   26.6775 C   0  0  0  0  0  0  0  0  0  0  0  0
   -4.6996   -1.7533   26.1706 C   0  0  0  0  0  0  0  0  0  0  0  0
   -3.4104   -1.7851   26.8034 C   0  0  0  0  0  0  0  0  0  0  0  0
   -3.9703    0.0507   27.9712 C   0  0  0  0  0  0  0  0  0  0  0  0
   -3.0849   -0.8195   27.7350 C   0  0  0  0  0  0  0  0  0  0  0  0
   -7.1778    6.0464   28.0570 N   0  0  0  0  0  0  0  0  0  0  0  0
  -15.0161    1.5323   30.3061 C   0  0  0  0  0  0  0  0  0  0  0  0
  -15.8667    1.9835   29.5876 C   0  0  0  0  0  0  0  0  0  0  0  0
  -15.5951    3.2481   28.7772 C   0  0  0  0  0  0  0  0  0  0  0  0
  6  7  1  0
  4 14  1  0
 14 15  1  0
 15 16  1  0
  2 22  1  0
  7  8  2  0
  8  9  1  0
 11 12  1  0
 12 13  2  0
 13  7  1  0
  9 10  2  0
 10 23  1  0
 23 24  2  0
 24 25  1  0
 25 11  2  0
 11  9  1  0
  1  2  2  0
  2  3  1  0
  3  6  2  0
  6  5  1  0
  5  4  2  0
  4  1  1  0
 16 17  2  0
 17 18  1  0
 18 19  2  0
 19 21  1  0
 21 20  2  0
 20 16  1  0
M  END
$$$$
