No_307-complexes_sdf/6BKW-FPZ/2024-09-17-14-21-01/
     RDKit          3D

 20 22  0  0  0  0  0  0  0  0999 V2000
   -7.2496    3.8871   27.4508 C   0  0  0  0  0  0  0  0  0  0  0  0
   -7.9379    4.9063   27.8518 C   0  0  0  0  0  0  0  0  0  0  0  0
   -7.5112    6.1898   27.6280 C   0  0  0  0  0  0  0  0  0  0  0  0
   -7.8078    2.6331   27.2522 C   0  0  0  0  0  0  0  0  0  0  0  0
   -9.1846    2.4724   27.5426 C   0  0  0  0  0  0  0  0  0  0  0  0
   -9.9168    3.5155   28.0405 C   0  0  0  0  0  0  0  0  0  0  0  0
   -9.3366    4.7963   28.1727 C   0  0  0  0  0  0  0  0  0  0  0  0
  -11.3249    3.2653   28.4083 C   0  0  0  0  0  0  0  0  0  0  0  0
  -12.1802    4.2448   28.6670 C   0  0  0  0  0  0  0  0  0  0  0  0
  -13.5622    4.0651   28.9769 C   0  0  0  0  0  0  0  0  0  0  0  0
  -13.9371    2.7393   29.2761 C   0  0  0  0  0  0  0  0  0  0  0  0
  -13.0546    1.6977   29.0904 C   0  0  0  0  0  0  0  0  0  0  0  0
  -11.7608    1.9295   28.7001 C   0  0  0  0  0  0  0  0  0  0  0  0
   -7.0573    1.4348   26.8611 C   0  0  0  0  0  0  0  0  0  0  0  0
   -5.9514    0.9918   27.6847 C   0  0  0  0  0  0  0  0  0  0  0  0
   -5.2384   -0.1547   27.4375 C   0  0  0  0  0  0  0  0  0  0  0  0
   -4.0570   -0.4355   28.2039 C   0  0  0  0  0  0  0  0  0  0  0  0
   -3.8130    0.3803   29.3393 C   0  0  0  0  0  0  0  0  0  0  0  0
   -4.5034    1.5707   29.5060 C   0  0  0  0  0  0  0  0  0  0  0  0
   -5.4611    1.8215   28.7113 C   0  0  0  0  0  0  0  0  0  0  0  0
  6  8  1  0
  4 14  1  0
  3  2  1  0
 14 15  1  0
 15 16  2  0
 16 17  1  0
 17 18  2  0
 18 19  1  0
 19 20  2  0
 20 15  1  0
  1  2  2  0
  2  7  1  0
  7  6  2  0
  6  5  1  0
  5  4  2  0
  4  1  1  0
  8  9  2  0
  9 10  1  0
 10 11  2  0
 11 12  1  0
 12 13  2  0
 13  8  1  0
M  END
$$$$
