No_3456-complexes_sdf/6BKW-FPZ/2024-09-17-14-21-01/
     RDKit          3D

 15 15  0  0  0  0  0  0  0  0999 V2000
   -7.9040    3.9820   27.1177 C   0  0  0  0  0  0  0  0  0  0  0  0
   -8.2057    2.8231   26.8733 C   0  0  0  0  0  0  0  0  0  0  0  0
   -7.4766    1.7477   27.4593 C   0  0  0  0  0  0  0  0  0  0  0  0
   -8.7468    5.1251   26.6967 C   0  0  0  0  0  0  0  0  0  0  0  0
   -9.7234    4.8589   25.8202 C   0  0  0  0  0  0  0  0  0  0  0  0
   -9.9711    3.5858   25.4266 C   0  0  0  0  0  0  0  0  0  0  0  0
   -9.2266    2.4957   25.9600 C   0  0  0  0  0  0  0  0  0  0  0  0
   -6.6425    0.9223   26.7531 C   0  0  0  0  0  0  0  0  0  0  0  0
   -5.7452    0.1285   27.5453 C   0  0  0  0  0  0  0  0  0  0  0  0
   -5.5801    0.4283   28.7515 C   0  0  0  0  0  0  0  0  0  0  0  0
   -4.6199   -0.4208   29.5762 C   0  0  0  0  0  0  0  0  0  0  0  0
   -4.4693   -0.1085   30.9731 C   0  0  0  0  0  0  0  0  0  0  0  0
   -3.8596   -1.4060   28.9699 C   0  0  0  0  0  0  0  0  0  0  0  0
   -4.0433   -1.6520   27.6021 C   0  0  0  0  0  0  0  0  0  0  0  0
   -4.9563   -0.8686   26.8553 C   0  0  0  0  0  0  0  0  0  0  0  0
  2  3  1  0
  3  8  1  0
  8  9  2  3
  9 10  1  0
 10 11  1  0
 11 12  2  0
 11 13  1  0
 13 14  2  3
 14 15  1  0
  1  2  2  0
  2  7  1  0
  7  6  2  0
  6  5  1  0
  5  4  2  0
  4  1  1  0
M  END
$$$$
