No_3575-complexes_sdf/6BKW-FPZ/2024-09-17-14-21-01/
     RDKit          3D

 13 13  0  0  0  0  0  0  0  0999 V2000
   -7.7129    4.2099   27.0854 C   0  0  0  0  0  0  0  0  0  0  0  0
   -7.7814    5.1722   27.8972 C   0  0  0  0  0  0  0  0  0  0  0  0
   -7.2983    2.9533   27.5684 C   0  0  0  0  0  0  0  0  0  0  0  0
   -7.6908    1.8111   26.9553 C   0  0  0  0  0  0  0  0  0  0  0  0
   -8.7568    1.8300   26.4037 C   0  0  0  0  0  0  0  0  0  0  0  0
   -9.4528    2.9585   25.9703 C   0  0  0  0  0  0  0  0  0  0  0  0
   -8.9888    4.1622   26.4901 C   0  0  0  0  0  0  0  0  0  0  0  0
   -8.3916    6.4084   27.5803 N   0  0  0  0  0  0  0  0  0  0  0  0
   -7.1283    0.4658   27.2516 C   0  0  0  0  0  0  0  0  0  0  0  0
   -5.7472    0.4475   27.7198 C   0  0  0  0  0  0  0  0  0  0  0  0
   -5.1131   -0.6778   28.0050 C   0  0  0  0  0  0  0  0  0  0  0  0
   -3.7712   -0.5976   28.5687 C   0  0  0  0  0  0  0  0  0  0  0  0
   -3.1256    0.6225   28.5364 C   0  0  0  0  0  0  0  0  0  0  0  0
  2  8  1  0
  4  9  1  0
  9 10  2  3
 10 11  1  0
 11 12  2  3
 12 13  1  0
  2  1  1  0
  1  3  2  0
  3  4  1  0
  4  5  2  0
  5  6  1  0
  6  7  2  0
  7  1  1  0
M  END
$$$$
