No_3120-complexes_sdf/6BKW-FPZ/2024-09-17-14-21-01/
     RDKit          3D

 32 34  0  0  0  0  0  0  0  0999 V2000
   -7.2496    3.8871   27.4508 C   0  0  0  0  0  0  0  0  0  0  0  0
   -8.5096    4.0291   27.2770 C   0  0  0  0  0  0  0  0  0  0  0  0
   -9.3451    2.8786   26.9046 C   0  0  0  0  0  0  0  0  0  0  0  0
   -6.6065    2.5680   27.5073 C   0  0  0  0  0  0  0  0  0  0  0  0
   -7.4233    1.4858   27.2402 C   0  0  0  0  0  0  0  0  0  0  0  0
   -8.7362    1.6525   26.9989 C   0  0  0  0  0  0  0  0  0  0  0  0
   -9.0996    5.3741   27.2134 C   0  0  0  0  0  0  0  0  0  0  0  0
   -8.6386    6.1889   26.5170 F   0  0  0  0  0  0  0  0  0  0  0  0
   -9.1503    5.9086   28.5759 F   0  0  0  0  0  0  0  0  0  0  0  0
  -10.5042    5.2681   26.9956 F   0  0  0  0  0  0  0  0  0  0  0  0
   -6.7601    0.2061   27.2415 C   0  0  0  0  0  0  0  0  0  0  0  0
   -5.4904    0.0643   27.7972 C   0  0  0  0  0  0  0  0  0  0  0  0
   -4.8276   -1.1845   27.8618 C   0  0  0  0  0  0  0  0  0  0  0  0
   -5.4325   -2.2169   27.1754 C   0  0  0  0  0  0  0  0  0  0  0  0
   -7.1858   -0.9644   26.6991 C   0  0  0  0  0  0  0  0  0  0  0  0
   -6.6167   -2.1161   26.6429 C   0  0  0  0  0  0  0  0  0  0  0  0
   -3.4918   -1.2375   28.5533 C   0  0  0  0  0  0  0  0  0  0  0  0
   -2.4886   -0.8030   27.8597 N   0  0  0  0  0  0  0  0  0  0  0  0
   -2.3823    0.4842   27.5061 C   0  0  0  0  0  0  0  0  0  0  0  0
   -1.4306   -1.6585   27.4938 C   0  0  0  0  0  0  0  0  0  0  0  0
   -3.0828    1.5495   27.7746 C   0  0  0  0  0  0  0  0  0  0  0  0
   -7.2219   -3.1508   26.1441 F   0  0  0  0  0  0  0  0  0  0  0  0
   -3.1593    2.5768   26.8804 O   0  0  0  0  0  0  0  0  0  0  0  0
   -3.6580    1.6520   28.9128 O   0  0  0  0  0  0  0  0  0  0  0  0
   -0.4360   -1.8275   28.4043 C   0  0  0  0  0  0  0  0  0  0  0  0
   -0.4697   -2.9673   29.1585 C   0  0  0  0  0  0  0  0  0  0  0  0
   -1.4498   -3.5289   29.5216 C   0  0  0  0  0  0  0  0  0  0  0  0
   -1.4999   -4.7394   30.3831 C   0  0  0  0  0  0  0  0  0  0  0  0
   -2.6912   -5.3435   30.7884 C   0  0  0  0  0  0  0  0  0  0  0  0
   -3.8866   -4.7902   30.2541 C   0  0  0  0  0  0  0  0  0  0  0  0
   -3.8903   -3.7286   29.3879 C   0  0  0  0  0  0  0  0  0  0  0  0
   -2.6979   -3.1119   29.0586 C   0  0  0  0  0  0  0  0  0  0  0  0
  2  7  1  0
  7  8  1  0
  7  9  1  0
  7 10  1  0
  5 11  1  0
 13 17  1  0
 17 18  1  0
 18 19  1  0
 18 20  1  0
 19 21  1  0
 16 22  1  0
 21 23  1  0
 21 24  2  0
 20 25  1  0
 25 26  1  0
 26 27  1  0
 27 28  2  0
 28 29  1  0
 29 30  2  0
 30 31  1  0
 31 32  2  0
 32 27  1  0
  1  2  2  0
  2  3  1  0
  3  6  2  0
  6  5  1  0
  5  4  2  0
  4  1  1  0
 11 12  2  0
 12 13  1  0
 13 14  2  0
 14 16  1  0
 16 15  2  0
 15 11  1  0
M  END
$$$$
