No_3978-complexes_sdf/6BKW-FPZ/2024-09-17-14-21-01/
     RDKit          3D

 14 16  0  0  0  0  0  0  0  0999 V2000
   -7.9040    3.9820   27.1177 C   0  0  0  0  0  0  0  0  0  0  0  0
   -9.0711    4.3164   27.0630 C   0  0  0  0  0  0  0  0  0  0  0  0
   -9.5294    5.4517   27.7215 C   0  0  0  0  0  0  0  0  0  0  0  0
   -7.2203    4.1641   28.0363 C   0  0  0  0  0  0  0  0  0  0  0  0
   -7.3859    5.4785   28.7386 C   0  0  0  0  0  0  0  0  0  0  0  0
   -8.6109    6.0375   28.6008 C   0  0  0  0  0  0  0  0  0  0  0  0
  -10.0787    3.7803   26.0016 C   0  0  0  0  0  0  0  0  0  0  0  0
   -9.6126    3.0071   25.0759 C   0  0  0  0  0  0  0  0  0  0  0  0
  -10.4332    2.4326   24.1930 C   0  0  0  0  0  0  0  0  0  0  0  0
   -9.9564    1.4854   23.1932 C   0  0  0  0  0  0  0  0  0  0  0  0
   -8.7674    0.8046   23.5280 C   0  0  0  0  0  0  0  0  0  0  0  0
   -8.0295    1.1591   24.6483 C   0  0  0  0  0  0  0  0  0  0  0  0
   -8.4062    2.1825   25.4837 C   0  0  0  0  0  0  0  0  0  0  0  0
   -7.5469    2.6587   26.3881 N   0  0  0  0  0  0  0  0  0  0  0  0
  2  7  1  0
  7  8  2  0
 13 14  2  0
 14  1  1  0
  1  2  1  0
  2  3  2  0
  3  6  1  0
  6  5  2  0
  5  4  1  0
  4  1  2  0
  8  9  1  0
  9 10  2  0
 10 11  1  0
 11 12  2  0
 12 13  1  0
 13  8  1  0
M  END
$$$$
