No_3609-complexes_sdf/6BKW-FPZ/2024-09-17-14-21-01/
     RDKit          3D

 28 31  0  0  0  0  0  0  0  0999 V2000
   -7.9040    3.9820   27.1177 C   0  0  0  0  0  0  0  0  0  0  0  0
   -8.2057    2.8231   26.8733 C   0  0  0  0  0  0  0  0  0  0  0  0
   -7.4766    1.7477   27.4593 C   0  0  0  0  0  0  0  0  0  0  0  0
   -8.7468    5.1251   26.6967 C   0  0  0  0  0  0  0  0  0  0  0  0
   -9.7234    4.8589   25.8202 C   0  0  0  0  0  0  0  0  0  0  0  0
   -9.9711    3.5858   25.4266 C   0  0  0  0  0  0  0  0  0  0  0  0
   -9.2266    2.4957   25.9600 C   0  0  0  0  0  0  0  0  0  0  0  0
   -6.1241    1.9216   27.8574 C   0  0  0  0  0  0  0  0  0  0  0  0
   -5.4248    0.7985   28.3602 C   0  0  0  0  0  0  0  0  0  0  0  0
   -4.0736    0.9343   28.8696 C   0  0  0  0  0  0  0  0  0  0  0  0
   -5.9361   -0.5101   27.9953 C   0  0  0  0  0  0  0  0  0  0  0  0
   -7.2018   -0.6651   27.5706 C   0  0  0  0  0  0  0  0  0  0  0  0
   -7.9513    0.4280   27.2029 C   0  0  0  0  0  0  0  0  0  0  0  0
   -8.4156    6.5168   27.1031 C   0  0  0  0  0  0  0  0  0  0  0  0
   -8.2095    6.7544   28.2796 O   0  0  0  0  0  0  0  0  0  0  0  0
   -8.5551    7.4818   26.2551 O   0  0  0  0  0  0  0  0  0  0  0  0
   -3.3832   -0.1524   29.4068 C   0  0  0  0  0  0  0  0  0  0  0  0
   -3.2673   -1.2511   28.7926 C   0  0  0  0  0  0  0  0  0  0  0  0
   -4.2661   -2.1150   28.2951 C   0  0  0  0  0  0  0  0  0  0  0  0
   -5.2311   -1.7166   28.0629 C   0  0  0  0  0  0  0  0  0  0  0  0
  -11.0204    3.3352   24.4334 C   0  0  2  0  0  0  0  0  0  0  0  0
  -10.8113    2.6411   23.3837 C   0  0  0  0  0  0  0  0  0  0  0  0
  -10.4895    2.9215   22.4707 C   0  0  0  0  0  0  0  0  0  0  0  0
  -10.1066    2.0691   21.2624 C   0  0  0  0  0  0  0  0  0  0  0  0
  -10.1298    0.7315   21.4627 C   0  0  0  0  0  0  0  0  0  0  0  0
  -10.4983    0.2348   22.6542 C   0  0  0  0  0  0  0  0  0  0  0  0
  -10.7831    1.1021   23.6598 C   0  0  0  0  0  0  0  0  0  0  0  0
  -12.3172    3.9727   24.6142 C   0  0  0  0  0  0  0  0  0  0  0  0
  2  3  1  0
  4 14  1  0
 14 15  1  0
 14 16  2  0
 10 17  1  0
 17 18  2  0
 18 19  1  0
 11 20  1  0
 19 20  2  0
  6 21  1  0
 21 22  1  0
 21 28  1  6
 10  9  1  0
 22 23  2  0
 23 24  1  0
 24 25  2  0
 25 26  1  0
 26 27  2  0
 27 22  1  0
  1  2  2  0
  2  7  1  0
  7  6  2  0
  6  5  1  0
  5  4  2  0
  4  1  1  0
  3  8  2  0
  8  9  1  0
  9 11  2  0
 11 12  1  0
 12 13  2  0
 13  3  1  0
M  END
$$$$
