No_340-complexes_sdf/6BKW-FPZ/2024-09-17-14-21-01/
     RDKit          3D

 14 15  0  0  0  0  0  0  0  0999 V2000
   -7.9040    3.9820   27.1177 C   0  0  0  0  0  0  0  0  0  0  0  0
   -9.0711    4.3164   27.0630 C   0  0  0  0  0  0  0  0  0  0  0  0
   -9.9692    3.7224   26.1073 C   0  0  0  0  0  0  0  0  0  0  0  0
   -7.4776    2.6994   26.6283 C   0  0  0  0  0  0  0  0  0  0  0  0
   -8.4406    1.9440   25.9776 C   0  0  0  0  0  0  0  0  0  0  0  0
   -9.6379    2.5001   25.6881 C   0  0  0  0  0  0  0  0  0  0  0  0
   -6.6635    4.8855   28.2893 Br  0  0  0  0  0  0  0  0  0  0  0  0
  -10.5990    1.7357   24.8210 C   0  0  0  0  0  0  0  0  0  0  0  0
  -11.2767    2.1233   24.0225 C   0  0  0  0  0  0  0  0  0  0  0  0
  -12.2004    1.3947   23.1470 C   0  0  0  0  0  0  0  0  0  0  0  0
  -12.1395    0.0113   23.3017 C   0  0  0  0  0  0  0  0  0  0  0  0
  -10.5237    0.2452   24.8795 C   0  0  0  0  0  0  0  0  0  0  0  0
  -11.3084   -0.5280   24.1806 C   0  0  0  0  0  0  0  0  0  0  0  0
   -9.4870    5.7864   27.5093 C   0  0  0  0  0  0  0  0  0  0  0  0
  1  7  1  0
  6  8  1  0
  2 14  1  0
  1  2  2  0
  2  3  1  0
  3  6  2  0
  6  5  1  0
  5  4  2  0
  4  1  1  0
  8  9  2  0
  9 10  1  0
 10 11  2  0
 11 13  1  0
 13 12  2  0
 12  8  1  0
M  END
$$$$
