No_337-complexes_sdf/6BKW-FPZ/2024-09-17-14-21-01/
     RDKit          3D

 18 19  0  0  0  0  0  0  0  0999 V2000
   -7.9040    3.9820   27.1177 C   0  0  0  0  0  0  0  0  0  0  0  0
   -9.0711    4.3164   27.0630 C   0  0  0  0  0  0  0  0  0  0  0  0
   -9.5294    5.4517   27.7215 C   0  0  0  0  0  0  0  0  0  0  0  0
   -6.9328    4.7309   27.8881 C   0  0  0  0  0  0  0  0  0  0  0  0
   -7.3377    5.8421   28.5537 C   0  0  0  0  0  0  0  0  0  0  0  0
   -8.6411    6.2609   28.3972 C   0  0  0  0  0  0  0  0  0  0  0  0
  -10.0467    3.4917   26.2630 C   0  0  0  0  0  0  0  0  0  0  0  0
  -10.5865    3.7278   25.3547 C   0  0  0  0  0  0  0  0  0  0  0  0
  -11.4289    2.9431   24.4579 C   0  0  0  0  0  0  0  0  0  0  0  0
  -11.9976    3.4251   23.2845 C   0  0  0  0  0  0  0  0  0  0  0  0
  -11.4200    4.3314   22.7506 C   0  0  0  0  0  0  0  0  0  0  0  0
  -10.4669    5.2265   23.3001 C   0  0  0  0  0  0  0  0  0  0  0  0
   -9.9513    4.9408   24.5121 C   0  0  0  0  0  0  0  0  0  0  0  0
  -10.2938    2.1744   26.9571 C   0  0  0  0  0  0  0  0  0  0  0  0
  -11.3058    1.9785   27.7724 C   0  0  0  0  0  0  0  0  0  0  0  0
  -12.1422    3.0554   28.3261 C   0  0  0  0  0  0  0  0  0  0  0  0
  -13.1456    2.7984   29.2882 C   0  0  0  0  0  0  0  0  0  0  0  0
  -13.3631    1.4450   29.6189 C   0  0  0  0  0  0  0  0  0  0  0  0
  2  7  1  0
  7 14  1  0
 14 15  2  3
 15 16  1  0
 16 17  2  3
 17 18  1  0
  7  8  1  0
  1  2  2  0
  2  3  1  0
  3  6  2  0
  6  5  1  0
  5  4  2  0
  4  1  1  0
  8  9  2  0
  9 10  1  0
 10 11  2  0
 11 12  1  0
 12 13  2  0
 13  8  1  0
M  END
$$$$
