No_3100-complexes_sdf/6BKW-FPZ/2024-09-17-14-21-01/
     RDKit          3D

 15 15  0  0  0  0  0  0  0  0999 V2000
   -7.7129    4.2099   27.0854 C   0  0  0  0  0  0  0  0  0  0  0  0
   -8.9133    4.4736   27.0998 C   0  0  0  0  0  0  0  0  0  0  0  0
   -9.8363    3.8127   27.2418 C   0  0  0  0  0  0  0  0  0  0  0  0
   -7.2995    2.8520   27.3808 C   0  0  0  0  0  0  0  0  0  0  0  0
   -5.9719    2.4237   27.5059 C   0  0  1  0  0  0  0  0  0  0  0  0
   -9.6377    2.3570   27.5375 C   0  0  0  0  0  0  0  0  0  0  0  0
   -8.3201    1.9228   27.6137 C   0  0  0  0  0  0  0  0  0  0  0  0
   -5.0095    3.1653   28.2142 C   0  0  0  0  0  0  0  0  0  0  0  0
   -5.7323    1.0207   27.2961 C   0  0  0  0  0  0  0  0  0  0  0  0
   -9.1982    6.0398   26.7965 C   0  0  0  0  0  0  0  0  0  0  0  0
   -9.6767    6.5703   27.7564 F   0  0  0  0  0  0  0  0  0  0  0  0
   -7.9786    6.7278   26.5805 F   0  0  0  0  0  0  0  0  0  0  0  0
   -9.7895    6.1127   25.6286 F   0  0  0  0  0  0  0  0  0  0  0  0
   -6.5015    0.2186   26.8862 N   0  0  0  0  0  0  0  0  0  0  0  0
   -6.2106   -1.0915   26.5641 C   0  0  0  0  0  0  0  0  0  0  0  0
  4  5  1  0
  5  8  1  1
  5  9  1  0
  2 10  1  0
 10 11  1  0
 10 12  1  0
 10 13  1  0
  9 14  1  0
 14 15  1  0
  1  2  2  0
  2  3  1  0
  3  6  2  0
  6  7  1  0
  7  4  2  0
  4  1  1  0
M  END
$$$$
