No_3278-complexes_sdf/6BKW-FPZ/2024-09-17-14-21-01/
     RDKit          3D

 40 44  0  0  0  0  0  0  0  0999 V2000
   -7.7129    4.2099   27.0854 C   0  0  0  0  0  0  0  0  0  0  0  0
   -7.7814    5.1722   27.8972 C   0  0  0  0  0  0  0  0  0  0  0  0
   -8.8776    3.8408   26.3416 C   0  0  0  0  0  0  0  0  0  0  0  0
   -9.9844    4.6492   26.4743 C   0  0  0  0  0  0  0  0  0  0  0  0
   -8.8033    6.1375   27.8728 C   0  0  0  0  0  0  0  0  0  0  0  0
   -9.9554    5.8280   27.1736 C   0  0  0  0  0  0  0  0  0  0  0  0
   -8.8752    2.6155   25.5663 C   0  0  0  0  0  0  0  0  0  0  0  0
   -9.7166    1.6539   26.0316 C   0  0  0  0  0  0  0  0  0  0  0  0
   -9.4998    0.4426   25.5878 C   0  0  0  0  0  0  0  0  0  0  0  0
  -10.2619   -0.6318   26.1172 C   0  0  0  0  0  0  0  0  0  0  0  0
  -11.2096   -0.3680   27.1555 C   0  0  0  0  0  0  0  0  0  0  0  0
  -11.3423    0.9008   27.6595 C   0  0  0  0  0  0  0  0  0  0  0  0
  -10.5073    1.9305   27.1755 C   0  0  0  0  0  0  0  0  0  0  0  0
   -8.6374    0.0780   24.4790 C   0  0  0  0  0  0  0  0  0  0  0  0
   -7.3296    0.1349   24.8332 F   0  0  0  0  0  0  0  0  0  0  0  0
   -8.7870    0.9750   23.4991 F   0  0  0  0  0  0  0  0  0  0  0  0
   -8.7372   -1.1327   24.0439 F   0  0  0  0  0  0  0  0  0  0  0  0
  -12.2655    1.1811   28.7956 C   0  0  0  0  0  0  0  0  0  0  0  0
  -13.2983    0.6317   29.0767 C   0  0  0  0  0  0  0  0  0  0  0  0
  -14.1742    1.0627   30.1351 C   0  0  0  0  0  0  0  0  0  0  0  0
  -13.8928    2.3153   30.7535 C   0  0  0  0  0  0  0  0  0  0  0  0
  -12.7836    3.0810   30.2676 C   0  0  0  0  0  0  0  0  0  0  0  0
  -12.0120    2.6308   29.2998 C   0  0  0  0  0  0  0  0  0  0  0  0
  -14.7648    2.8770   31.8286 C   0  0  0  0  0  0  0  0  0  0  0  0
  -14.9152    4.0734   31.9502 C   0  0  0  0  0  0  0  0  0  0  0  0
  -14.3265    5.0680   31.1019 C   0  0  0  0  0  0  0  0  0  0  0  0
  -13.2549    4.5686   30.2522 C   0  0  0  0  0  0  0  0  0  0  0  0
   -6.6897    5.6328   28.5781 F   0  0  0  0  0  0  0  0  0  0  0  0
  -15.8712    4.6806   33.0058 C   0  0  0  0  0  0  0  0  0  0  0  0
  -16.9111    5.3203   32.6699 N   0  0  0  0  0  0  0  0  0  0  0  0
  -17.9603    4.9390   32.6655 C   0  0  0  0  0  0  0  0  0  0  0  0
  -18.4300    4.0032   33.2599 C   0  0  0  0  0  0  0  0  0  0  0  0
  -19.0118    5.7527   31.7906 C   0  0  0  0  0  0  0  0  0  0  0  0
  -19.7758    3.4209   33.1965 C   0  0  0  0  0  0  0  0  0  0  0  0
  -20.3211    5.2473   31.7308 C   0  0  0  0  0  0  0  0  0  0  0  0
  -20.6783    4.1583   32.4520 C   0  0  0  0  0  0  0  0  0  0  0  0
  -22.0849    3.6965   32.3294 C   0  0  0  0  0  0  0  0  0  0  0  0
  -22.6930    3.3263   33.2655 O   0  0  0  0  0  0  0  0  0  0  0  0
  -22.6369    3.6966   31.0933 N   0  0  0  0  0  0  0  0  0  0  0  0
  -23.6903    3.2730   30.7749 C   0  0  0  0  0  0  0  0  0  0  0  0
  3  7  1  0
  7  8  1  0
  9 14  1  0
 14 15  1  0
 14 16  1  0
 14 17  1  0
 12 18  1  0
  2 28  1  0
 25 29  1  0
 29 30  1  0
 30 31  1  0
 36 37  1  0
 37 38  2  0
 37 39  1  0
 39 40  1  0
 18 19  2  0
 19 20  1  0
 20 21  2  0
 22 23  2  0
 23 18  1  0
  1  2  2  0
  2  5  1  0
  5  6  2  0
  6  4  1  0
  4  3  2  0
  3  1  1  0
 21 22  1  0
 22 27  1  0
 27 26  2  0
 26 25  1  0
 25 24  2  0
 24 21  1  0
 31 32  2  0
 32 34  1  0
 34 36  2  0
 36 35  1  0
 35 33  2  0
 33 31  1  0
  8  9  2  0
  9 10  1  0
 10 11  2  0
 11 12  1  0
 12 13  2  0
 13  8  1  0
M  END
$$$$
