No_3354-complexes_sdf/6BKW-FPZ/2024-09-17-14-21-01/
     RDKit          3D

 20 22  0  0  0  0  0  0  0  0999 V2000
   -7.7129    4.2099   27.0854 C   0  0  0  0  0  0  0  0  0  0  0  0
   -7.7814    5.1722   27.8972 C   0  0  0  0  0  0  0  0  0  0  0  0
   -8.8255    3.2789   27.1191 C   0  0  0  0  0  0  0  0  0  0  0  0
   -8.7530    2.0643   26.3119 C   0  0  0  0  0  0  0  0  0  0  0  0
   -7.6193    1.3092   26.4290 C   0  0  0  0  0  0  0  0  0  0  0  0
   -7.2532    0.7983   27.4182 C   0  0  0  0  0  0  0  0  0  0  0  0
   -6.3810    0.0788   27.5877 C   0  0  0  0  0  0  0  0  0  0  0  0
   -5.6364   -0.4384   26.5369 C   0  0  0  0  0  0  0  0  0  0  0  0
   -9.7254    3.4371   28.1888 C   0  0  0  0  0  0  0  0  0  0  0  0
   -6.1654   -0.2568   25.2648 C   0  0  0  0  0  0  0  0  0  0  0  0
   -7.2240    0.6294   25.2064 C   0  0  0  0  0  0  0  0  0  0  0  0
  -10.9361    2.6118   28.2093 C   0  0  0  0  0  0  0  0  0  0  0  0
  -11.9600    3.0505   29.0730 C   0  0  0  0  0  0  0  0  0  0  0  0
   -9.5457    4.5367   28.9295 N   0  0  0  0  0  0  0  0  0  0  0  0
   -8.6864    5.4654   28.8629 C   0  0  0  0  0  0  0  0  0  0  0  0
  -13.1278    2.3091   29.2520 C   0  0  0  0  0  0  0  0  0  0  0  0
  -13.2079    1.0834   28.5664 C   0  0  0  0  0  0  0  0  0  0  0  0
  -12.1870    0.6341   27.7234 C   0  0  0  0  0  0  0  0  0  0  0  0
  -11.0387    1.3981   27.6183 C   0  0  0  0  0  0  0  0  0  0  0  0
   -9.8114    1.7919   25.6691 O   0  0  0  0  0  0  0  0  0  0  0  0
  3  4  1  0
  4  5  1  0
  9 12  1  0
  4 20  2  0
 12 13  2  0
 13 16  1  0
 16 17  2  0
 17 18  1  0
 18 19  2  0
 19 12  1  0
  1  2  2  0
  2 15  1  0
 15 14  2  0
 14  9  1  0
  9  3  2  0
  3  1  1  0
  5  6  2  0
  6  7  1  0
  7  8  2  0
  8 10  1  0
 10 11  2  0
 11  5  1  0
M  END
$$$$
