No_379-complexes_sdf/6BKW-FPZ/2024-09-17-14-21-01/
     RDKit          3D

 18 19  0  0  0  0  0  0  0  0999 V2000
   -7.2496    3.8871   27.4508 C   0  0  0  0  0  0  0  0  0  0  0  0
   -7.6161    2.7143   27.1523 C   0  0  0  0  0  0  0  0  0  0  0  0
   -7.1618    1.8631   27.5232 C   0  0  0  0  0  0  0  0  0  0  0  0
   -8.0036    5.1085   27.2100 C   0  0  0  0  0  0  0  0  0  0  0  0
   -9.0765    5.1562   26.4023 C   0  0  0  0  0  0  0  0  0  0  0  0
   -9.5423    3.9741   25.8512 C   0  0  0  0  0  0  0  0  0  0  0  0
   -8.8464    2.7352   26.2620 C   0  0  0  0  0  0  0  0  0  0  0  0
   -7.5745    0.4314   27.2995 C   0  0  0  0  0  0  0  0  0  0  0  0
   -8.7724    0.3253   26.5754 C   0  0  0  0  0  0  0  0  0  0  0  0
   -9.4214    1.4876   25.9818 C   0  0  0  0  0  0  0  0  0  0  0  0
   -7.3496    6.6225   27.9182 Cl  0  0  0  0  0  0  0  0  0  0  0  0
   -6.9313   -0.7244   27.8762 C   0  0  0  0  0  0  0  0  0  0  0  0
   -7.6163   -1.3556   28.6477 F   0  0  0  0  0  0  0  0  0  0  0  0
   -5.8156   -0.2715   28.6034 F   0  0  0  0  0  0  0  0  0  0  0  0
   -6.4327   -1.4888   26.8779 F   0  0  0  0  0  0  0  0  0  0  0  0
  -10.6188    3.9606   24.9523 C   0  0  0  0  0  0  0  0  0  0  0  0
  -10.4598    4.2280   23.5835 C   0  0  0  0  0  0  0  0  0  0  0  0
  -11.4683    4.2598   22.6540 C   0  0  0  0  0  0  0  0  0  0  0  0
  4 11  1  0
  8 12  1  0
 12 13  1  0
 12 14  1  0
 12 15  1  0
  6 16  1  0
 16 17  2  3
 17 18  1  0
  1  2  2  0
  7  6  2  0
  6  5  1  0
  5  4  2  0
  4  1  1  0
  2  3  1  0
  3  8  2  0
  8  9  1  0
  9 10  2  0
 10  7  1  0
  7  2  1  0
M  END
$$$$
