No_3321-complexes_sdf/6BKW-FPZ/2024-09-17-14-21-01/
     RDKit          3D

 22 24  0  0  0  0  0  0  0  0999 V2000
   -7.7129    4.2099   27.0854 C   0  0  0  0  0  0  0  0  0  0  0  0
   -7.7814    5.1722   27.8972 C   0  0  0  0  0  0  0  0  0  0  0  0
   -8.8998    3.8713   26.3707 C   0  0  0  0  0  0  0  0  0  0  0  0
   -9.9938    4.6774   26.5446 C   0  0  0  0  0  0  0  0  0  0  0  0
   -8.7789    6.1536   27.9256 C   0  0  0  0  0  0  0  0  0  0  0  0
   -9.9428    5.8398   27.2296 C   0  0  0  0  0  0  0  0  0  0  0  0
   -8.9119    2.6447   25.5685 C   0  0  0  0  0  0  0  0  0  0  0  0
   -8.2955    1.5559   26.0609 N   0  0  0  0  0  0  0  0  0  0  0  0
   -8.1666    0.4266   25.3563 C   0  0  0  0  0  0  0  0  0  0  0  0
   -8.6387   -0.6409   25.9521 C   0  0  0  0  0  0  0  0  0  0  0  0
   -9.6886   -1.2253   25.7102 C   0  0  0  0  0  0  0  0  0  0  0  0
  -10.2267   -2.3823   26.4838 C   0  0  0  0  0  0  0  0  0  0  0  0
   -9.4902   -2.8095   27.5942 C   0  0  0  0  0  0  0  0  0  0  0  0
   -8.3173   -2.1861   27.9465 C   0  0  0  0  0  0  0  0  0  0  0  0
   -7.8523   -1.0658   27.2268 C   0  0  0  0  0  0  0  0  0  0  0  0
   -9.5622    2.6185   24.5264 O   0  0  0  0  0  0  0  0  0  0  0  0
   -6.6375   -0.3887   27.6674 C   0  0  0  0  0  0  0  0  0  0  0  0
   -6.1913    0.7757   27.5165 C   0  0  0  0  0  0  0  0  0  0  0  0
   -5.8170   -1.3187   28.4059 C   0  0  0  0  0  0  0  0  0  0  0  0
   -4.9701    1.3275   28.0739 C   0  0  0  0  0  0  0  0  0  0  0  0
   -4.6178   -0.8099   28.9960 C   0  0  0  0  0  0  0  0  0  0  0  0
   -4.2265    0.5419   28.8490 C   0  0  0  0  0  0  0  0  0  0  0  0
  3  7  1  0
  7  8  1  0
  8  9  1  0
  9 10  1  0
  7 16  2  0
 15 17  1  0
 17 18  2  0
 18 20  1  0
 20 22  2  0
 22 21  1  0
 21 19  2  0
 19 17  1  0
  1  2  2  0
  2  5  1  0
  5  6  2  0
  6  4  1  0
  4  3  2  0
  3  1  1  0
 10 11  2  0
 11 12  1  0
 12 13  2  0
 13 14  1  0
 14 15  2  0
 15 10  1  0
M  END
$$$$
