No_3141-complexes_sdf/6BKW-FPZ/2024-09-17-14-21-01/
     RDKit          3D

 19 21  0  0  0  0  0  0  0  0999 V2000
   -7.7129    4.2099   27.0854 C   0  0  0  0  0  0  0  0  0  0  0  0
   -7.7814    5.1722   27.8972 C   0  0  0  0  0  0  0  0  0  0  0  0
   -8.7889    3.2468   27.2220 C   0  0  0  0  0  0  0  0  0  0  0  0
   -8.5940    1.9755   26.6525 C   0  0  0  0  0  0  0  0  0  0  0  0
   -9.4990    1.3566   25.9026 C   0  0  0  0  0  0  0  0  0  0  0  0
   -9.0214    5.8041   28.2929 C   0  0  0  0  0  0  0  0  0  0  0  0
   -9.8944    3.6512   27.9113 C   0  0  0  0  0  0  0  0  0  0  0  0
  -10.0302    4.8964   28.4608 C   0  0  0  0  0  0  0  0  0  0  0  0
   -9.2307    0.1444   25.2955 C   0  0  0  0  0  0  0  0  0  0  0  0
   -7.9858   -0.4240   25.4273 C   0  0  0  0  0  0  0  0  0  0  0  0
   -7.0309    0.1094   26.2658 C   0  0  0  0  0  0  0  0  0  0  0  0
   -7.2674    1.3501   26.8939 C   0  0  0  0  0  0  0  0  0  0  0  0
  -11.0559    2.6754   27.9959 C   0  0  0  0  0  0  0  0  0  0  0  0
  -11.2285    1.6269   28.0002 C   0  0  0  0  0  0  0  0  0  0  0  0
  -12.3880    0.8404   28.3528 C   0  0  0  0  0  0  0  0  0  0  0  0
  -13.4095    1.6109   28.7882 C   0  0  0  0  0  0  0  0  0  0  0  0
  -12.3843    3.2925   28.6467 C   0  0  0  0  0  0  0  0  0  0  0  0
  -13.3382    2.7150   28.8706 C   0  0  0  0  0  0  0  0  0  0  0  0
  -14.5639    3.6219   29.4283 C   0  0  0  0  0  0  0  0  0  0  0  0
  3  4  1  0
  7 13  1  0
 13 14  2  0
 14 15  1  0
 15 16  2  0
 13 17  1  0
 16 17  1  0
 16 18  1  0
 18 19  1  0
  4  5  2  0
  5  9  1  0
  9 10  2  0
 10 11  1  0
 11 12  2  0
 12  4  1  0
  1  2  2  0
  2  6  1  0
  6  8  2  0
  8  7  1  0
  7  3  2  0
  3  1  1  0
M  END
$$$$
