No_3504-complexes_sdf/6BKW-FPZ/2024-09-17-14-21-01/
     RDKit          3D

 16 18  0  0  0  0  0  0  0  0999 V2000
   -7.7129    4.2099   27.0854 C   0  0  0  0  0  0  0  0  0  0  0  0
   -7.7814    5.1722   27.8972 C   0  0  0  0  0  0  0  0  0  0  0  0
   -7.3155    2.9700   27.6145 C   0  0  0  0  0  0  0  0  0  0  0  0
   -7.6814    1.8188   26.9581 C   0  0  0  0  0  0  0  0  0  0  0  0
   -8.6377    1.9131   25.9324 C   0  0  0  0  0  0  0  0  0  0  0  0
   -9.1866    3.0673   25.6037 C   0  0  0  0  0  0  0  0  0  0  0  0
   -8.8394    4.1752   26.2513 C   0  0  0  0  0  0  0  0  0  0  0  0
   -8.2486    6.4747   27.5719 N   0  0  0  0  0  0  0  0  0  0  0  0
   -9.0296    6.5913   26.5347 C   0  0  0  0  0  0  0  0  0  0  0  0
   -9.4171    5.4852   25.8585 C   0  0  0  0  0  0  0  0  0  0  0  0
   -7.0328    0.5284   27.2806 C   0  0  0  0  0  0  0  0  0  0  0  0
   -7.6748   -0.6923   27.1840 C   0  0  0  0  0  0  0  0  0  0  0  0
   -7.0357   -1.8586   27.5554 C   0  0  0  0  0  0  0  0  0  0  0  0
   -5.6529    0.5285   27.4350 C   0  0  0  0  0  0  0  0  0  0  0  0
   -4.9956   -0.6418   27.8846 C   0  0  0  0  0  0  0  0  0  0  0  0
   -5.6911   -1.8211   27.9219 C   0  0  0  0  0  0  0  0  0  0  0  0
  4 11  1  0
  1  2  2  0
  2  8  1  0
  8  9  2  0
  9 10  1  0
 10  7  2  0
 11 12  2  0
 12 13  1  0
 13 16  2  0
 16 15  1  0
 15 14  2  0
 14 11  1  0
  1  3  1  0
  3  4  2  0
  4  5  1  0
  5  6  2  0
  6  7  1  0
  7  1  1  0
M  END
$$$$
