No_3245-complexes_sdf/6BKW-FPZ/2024-09-17-14-21-01/
     RDKit          3D

 12 12  0  0  0  0  0  0  0  0999 V2000
   -7.9040    3.9820   27.1177 C   0  0  0  0  0  0  0  0  0  0  0  0
   -7.8663    4.8694   27.9238 C   0  0  0  0  0  0  0  0  0  0  0  0
   -7.4547    2.7080   27.4594 C   0  0  0  0  0  0  0  0  0  0  0  0
   -6.1474    2.6388   27.8014 C   0  0  0  0  0  0  0  0  0  0  0  0
   -8.5539    6.1392   27.6636 C   0  0  0  0  0  0  0  0  0  0  0  0
   -5.5683    1.4494   28.1260 N   0  0  0  0  0  0  0  0  0  0  0  0
   -8.9541    4.1454   26.1539 C   0  0  0  0  0  0  0  0  0  0  0  0
   -9.4159    3.0149   25.2843 C   0  0  0  0  0  0  0  0  0  0  0  0
   -9.4377    6.3857   26.6525 C   0  0  0  0  0  0  0  0  0  0  0  0
   -9.6144    5.3091   25.8651 C   0  0  0  0  0  0  0  0  0  0  0  0
   -6.1418    0.3200   28.0586 C   0  0  0  0  0  0  0  0  0  0  0  0
   -7.4714    0.2671   27.5397 C   0  0  0  0  0  0  0  0  0  0  0  0
  3  4  1  0
  4  6  2  3
  7  8  1  0
  6 11  1  0
 11 12  2  0
  3  1  1  0
  1  2  2  0
  2  5  1  0
  5  9  2  0
  9 10  1  0
 10  7  2  0
  7  1  1  0
M  END
$$$$
