No_3639-complexes_sdf/6BKW-FPZ/2024-09-17-14-21-01/
     RDKit          3D

 27 31  0  0  0  0  0  0  0  0999 V2000
   -7.7129    4.2099   27.0854 C   0  0  0  0  0  0  0  0  0  0  0  0
   -7.7814    5.1722   27.8972 C   0  0  0  0  0  0  0  0  0  0  0  0
   -8.8776    3.8408   26.3416 C   0  0  0  0  0  0  0  0  0  0  0  0
   -9.9844    4.6492   26.4743 C   0  0  0  0  0  0  0  0  0  0  0  0
   -8.7830    6.1594   27.8870 C   0  0  0  0  0  0  0  0  0  0  0  0
   -9.9269    5.8191   27.1183 C   0  0  0  0  0  0  0  0  0  0  0  0
   -8.8618    2.6242   25.5633 C   0  0  0  0  0  0  0  0  0  0  0  0
   -8.2819    1.4836   26.1793 C   0  0  0  0  0  0  0  0  0  0  0  0
   -8.2762    0.2624   25.5398 C   0  0  0  0  0  0  0  0  0  0  0  0
   -8.8607    0.2483   24.2552 C   0  0  0  0  0  0  0  0  0  0  0  0
   -9.4172    1.3567   23.6489 C   0  0  0  0  0  0  0  0  0  0  0  0
   -9.4133    2.5530   24.3291 C   0  0  0  0  0  0  0  0  0  0  0  0
   -9.9925    1.2931   22.3157 C   0  0  0  0  0  0  0  0  0  0  0  0
   -9.9773    0.1421   21.5845 C   0  0  0  0  0  0  0  0  0  0  0  0
   -9.3189   -1.0209   22.1989 C   0  0  0  0  0  0  0  0  0  0  0  0
   -8.8015   -0.9632   23.4636 C   0  0  0  0  0  0  0  0  0  0  0  0
   -9.3145   -2.2497   21.3613 C   0  0  0  0  0  0  0  0  0  0  0  0
   -8.2375   -2.9210   21.3440 C   0  0  0  0  0  0  0  0  0  0  0  0
   -7.0723   -2.4324   22.1153 C   0  0  0  0  0  0  0  0  0  0  0  0
   -7.3400   -1.5607   23.2365 C   0  0  0  0  0  0  0  0  0  0  0  0
   -6.2628   -1.3737   24.2352 C   0  0  0  0  0  0  0  0  0  0  0  0
   -5.7184   -2.5713   24.7980 C   0  0  0  0  0  0  0  0  0  0  0  0
   -6.0179   -2.7626   26.0573 C   0  0  0  0  0  0  0  0  0  0  0  0
   -5.9973   -3.9932   26.4940 C   0  0  0  0  0  0  0  0  0  0  0  0
   -5.2429   -5.0138   25.8384 C   0  0  0  0  0  0  0  0  0  0  0  0
   -4.8681   -4.7561   24.5345 C   0  0  0  0  0  0  0  0  0  0  0  0
   -5.1405   -3.5080   23.9591 C   0  0  0  0  0  0  0  0  0  0  0  0
  3  7  1  0
 20 21  1  0
 21 22  1  0
 22 23  2  0
 23 24  1  0
 24 25  2  0
 25 26  1  0
 26 27  2  0
 27 22  1  0
  7  8  2  0
  8  9  1  0
  9 10  2  0
 11 12  2  0
 12  7  1  0
 16 20  2  0
 20 19  1  0
 19 18  2  0
 18 17  1  0
 17 15  2  0
  1  2  2  0
  2  5  1  0
  5  6  2  0
  6  4  1  0
  4  3  2  0
  3  1  1  0
 10 11  1  0
 11 13  1  0
 13 14  2  0
 14 15  1  0
 15 16  1  0
 16 10  1  0
M  END
$$$$
