No_3576-complexes_sdf/6BKW-FPZ/2024-09-17-14-21-01/
     RDKit          3D

 12 12  0  0  0  0  0  0  0  0999 V2000
   -7.9040    3.9820   27.1177 C   0  0  0  0  0  0  0  0  0  0  0  0
   -9.0711    4.3164   27.0630 C   0  0  0  0  0  0  0  0  0  0  0  0
   -9.5294    5.4517   27.7215 C   0  0  0  0  0  0  0  0  0  0  0  0
   -7.4336    2.7132   26.5681 C   0  0  0  0  0  0  0  0  0  0  0  0
   -6.3309    2.0536   27.2853 C   0  0  0  0  0  0  0  0  0  0  0  0
   -6.0697    0.7257   27.2175 C   0  0  0  0  0  0  0  0  0  0  0  0
   -4.9949    0.1807   27.9660 C   0  0  0  0  0  0  0  0  0  0  0  0
   -4.7013   -1.1665   27.9933 C   0  0  0  0  0  0  0  0  0  0  0  0
   -5.5178   -1.9881   27.2691 C   0  0  0  0  0  0  0  0  0  0  0  0
   -6.7738   -0.2451   26.5746 C   0  0  0  0  0  0  0  0  0  0  0  0
   -6.5663   -1.5124   26.5742 C   0  0  0  0  0  0  0  0  0  0  0  0
  -10.8322    5.8900   27.5911 C   0  0  0  0  0  0  0  0  0  0  0  0
  1  2  1  0
  2  3  2  3
  1  4  1  0
  4  5  1  0
  3 12  1  0
  5  6  1  0
  6  7  2  0
  7  8  1  0
  8  9  2  0
  9 11  1  0
 11 10  2  0
 10  6  1  0
M  END
$$$$
