No_3615-complexes_sdf/6BKW-FPZ/2024-09-17-14-21-01/
     RDKit          3D

 13 14  0  0  0  0  0  0  0  0999 V2000
   -7.7129    4.2099   27.0854 C   0  0  0  0  0  0  0  0  0  0  0  0
   -7.7814    5.1722   27.8972 C   0  0  0  0  0  0  0  0  0  0  0  0
   -8.8776    3.8408   26.3416 C   0  0  0  0  0  0  0  0  0  0  0  0
   -8.9136    2.6330   25.5655 C   0  0  0  0  0  0  0  0  0  0  0  0
   -8.8361    6.1389   27.9032 C   0  0  0  0  0  0  0  0  0  0  0  0
  -10.0140    4.6007   26.4589 C   0  0  0  0  0  0  0  0  0  0  0  0
   -9.9695    5.8024   27.1801 C   0  0  0  0  0  0  0  0  0  0  0  0
   -8.2977    1.4728   26.1575 C   0  0  0  0  0  0  0  0  0  0  0  0
   -8.1320    0.3076   25.4813 C   0  0  0  0  0  0  0  0  0  0  0  0
   -8.7052    0.2752   24.2113 C   0  0  0  0  0  0  0  0  0  0  0  0
   -9.4064    2.4914   24.3141 C   0  0  0  0  0  0  0  0  0  0  0  0
   -9.2878    1.3297   23.6210 C   0  0  0  0  0  0  0  0  0  0  0  0
  -11.1680    4.3125   25.6633 C   0  0  0  0  0  0  0  0  0  0  0  0
  3  4  1  0
  6 13  1  0
  4  8  2  0
  8  9  1  0
  9 10  2  0
 10 12  1  0
 12 11  2  0
 11  4  1  0
  1  2  2  0
  2  5  1  0
  5  7  2  0
  7  6  1  0
  6  3  2  0
  3  1  1  0
M  END
$$$$
