No_3447-complexes_sdf/6BKW-FPZ/2024-09-17-14-21-01/
     RDKit          3D

 11 11  0  0  0  0  0  0  0  0999 V2000
   -7.2496    3.8871   27.4508 C   0  0  0  0  0  0  0  0  0  0  0  0
   -7.9379    4.9063   27.8518 C   0  0  1  0  0  0  0  0  0  0  0  0
   -7.5112    6.1898   27.6280 C   0  0  0  0  0  0  0  0  0  0  0  0
   -9.3085    4.6933   28.2930 C   0  0  2  0  0  0  0  0  0  0  0  0
   -7.7803    2.5137   27.6845 C   0  0  0  0  0  0  0  0  0  0  0  0
   -8.5336    2.1142   26.6681 C   0  0  0  0  0  0  0  0  0  0  0  0
   -9.5493    1.2370   26.9288 C   0  0  0  0  0  0  0  0  0  0  0  0
  -10.7700    1.6633   27.2342 C   0  0  0  0  0  0  0  0  0  0  0  0
  -11.2283    2.8486   27.2144 C   0  0  0  0  0  0  0  0  0  0  0  0
  -10.7458    3.9077   28.3308 C   0  0  0  0  0  0  0  0  0  0  0  0
   -9.6216    5.7509   28.9453 O   0  0  0  0  0  0  0  0  0  0  0  0
  1  2  1  0
  2  3  1  6
  2  4  1  0
  1  5  1  0
  5  6  1  0
  6  7  2  3
  7  8  1  0
  8  9  2  3
  4 10  1  0
  9 10  1  0
  4 11  1  6
M  END
$$$$
