No_3632-complexes_sdf/6BKW-FPZ/2024-09-17-14-21-01/
     RDKit          3D

 13 14  0  0  0  0  0  0  0  0999 V2000
   -7.9040    3.9820   27.1177 C   0  0  0  0  0  0  0  0  0  0  0  0
   -7.8663    4.8694   27.9238 C   0  0  0  0  0  0  0  0  0  0  0  0
   -7.4698    2.6989   27.4277 C   0  0  0  0  0  0  0  0  0  0  0  0
   -7.9683    1.5964   26.8266 C   0  0  1  0  0  0  0  0  0  0  0  0
   -8.9447    1.7923   25.8533 C   0  0  0  0  0  0  0  0  0  0  0  0
   -9.4405    2.9988   25.5757 C   0  0  0  0  0  0  0  0  0  0  0  0
   -8.9424    4.1117   26.2388 C   0  0  0  0  0  0  0  0  0  0  0  0
   -7.0108    5.0080   28.9277 N   0  0  0  0  0  0  0  0  0  0  0  0
   -8.5925    6.2243   27.6560 C   0  0  0  0  0  0  0  0  0  0  0  0
   -9.5156    5.3572   25.9609 C   0  0  0  0  0  0  0  0  0  0  0  0
   -9.2679    6.4151   26.6959 N   0  0  0  0  0  0  0  0  0  0  0  0
   -7.3743    0.2629   27.0463 C   0  0  0  0  0  0  0  0  0  0  0  0
   -6.0518    0.1651   27.5010 C   0  0  0  0  0  0  0  0  0  0  0  0
  1  3  1  0
  3  4  1  0
  4  5  1  0
  5  6  1  0
  6  7  1  0
  2  8  1  0
  4 12  1  6
 12 13  3  0
  1  2  2  0
  2  9  1  0
  9 11  2  0
 11 10  1  0
 10  7  2  0
  7  1  1  0
M  END
$$$$
