No_3979-complexes_sdf/6BKW-FPZ/2024-09-17-14-21-01/
     RDKit          3D

 26 29  0  0  0  0  0  0  0  0999 V2000
   -7.7129    4.2099   27.0854 C   0  0  0  0  0  0  0  0  0  0  0  0
   -7.7814    5.1722   27.8972 C   0  0  0  0  0  0  0  0  0  0  0  0
   -8.8998    3.8713   26.3707 C   0  0  0  0  0  0  0  0  0  0  0  0
   -9.9938    4.6774   26.5446 C   0  0  0  0  0  0  0  0  0  0  0  0
   -8.7789    6.1536   27.9256 C   0  0  0  0  0  0  0  0  0  0  0  0
   -9.9428    5.8398   27.2296 C   0  0  0  0  0  0  0  0  0  0  0  0
   -8.9075    2.7268   25.6172 N   0  0  0  0  0  0  0  0  0  0  0  0
   -9.7309    2.5286   24.5808 C   0  0  0  0  0  0  0  0  0  0  0  0
   -9.6189    1.3376   23.8458 C   0  0  0  0  0  0  0  0  0  0  0  0
   -8.3618    1.5380   26.0464 C   0  0  0  0  0  0  0  0  0  0  0  0
   -8.2232    0.4029   25.4249 C   0  0  0  0  0  0  0  0  0  0  0  0
   -8.8972    0.3027   24.2797 C   0  0  0  0  0  0  0  0  0  0  0  0
  -10.3757    1.2980   22.5420 C   0  0  0  0  0  0  0  0  0  0  0  0
  -10.5822    2.4258   21.8905 C   0  0  0  0  0  0  0  0  0  0  0  0
  -11.2301    3.2395   21.4576 C   0  0  0  0  0  0  0  0  0  0  0  0
  -12.4069    3.8101   22.0315 C   0  0  0  0  0  0  0  0  0  0  0  0
  -12.6759    3.5724   23.3635 C   0  0  0  0  0  0  0  0  0  0  0  0
  -13.8473    4.2023   24.0040 C   0  0  0  0  0  0  0  0  0  0  0  0
  -14.1510    4.0509   25.3606 C   0  0  0  0  0  0  0  0  0  0  0  0
  -15.1468    4.7451   26.0022 C   0  0  0  0  0  0  0  0  0  0  0  0
  -15.8898    5.6669   25.1955 C   0  0  0  0  0  0  0  0  0  0  0  0
  -15.5625    5.8968   23.8917 C   0  0  0  0  0  0  0  0  0  0  0  0
  -14.4936    5.2798   23.2974 C   0  0  0  0  0  0  0  0  0  0  0  0
   -9.6456    0.4295   21.6201 C   0  0  0  0  0  0  0  0  0  0  0  0
   -9.3803   -0.8930   22.0342 C   0  0  0  0  0  0  0  0  0  0  0  0
   -8.6997   -0.8052   23.3310 C   0  0  0  0  0  0  0  0  0  0  0  0
  3  7  1  0
  7  8  1  0
  7 10  1  0
 11 12  1  0
 14 15  1  0
 15 16  2  3
 16 17  1  0
 17 18  1  0
 14 13  1  0
  8  9  1  0
 11 10  1  0
 18 19  2  0
 19 20  1  0
 20 21  2  0
 21 22  1  0
 22 23  2  0
 23 18  1  0
  1  2  2  0
  2  5  1  0
  5  6  2  0
  6  4  1  0
  4  3  2  0
  3  1  1  0
  9 12  2  0
 12 26  1  0
 26 25  2  0
 25 24  1  0
 24 13  2  0
 13  9  1  0
M  END
$$$$
