No_3410-complexes_sdf/6BKW-FPZ/2024-09-17-14-21-01/
     RDKit          3D

 23 25  0  0  0  0  0  0  0  0999 V2000
   -7.2496    3.8871   27.4508 C   0  0  0  0  0  0  0  0  0  0  0  0
   -7.9379    4.9063   27.8518 C   0  0  0  0  0  0  0  0  0  0  0  0
   -9.3460    4.8223   27.8695 C   0  0  0  0  0  0  0  0  0  0  0  0
   -7.8628    2.6163   27.1065 C   0  0  0  0  0  0  0  0  0  0  0  0
   -9.2787    2.5744   27.1970 C   0  0  0  0  0  0  0  0  0  0  0  0
  -10.0108    3.6770   27.6340 C   0  0  0  0  0  0  0  0  0  0  0  0
  -11.4990    3.7612   27.7469 C   0  0  0  0  0  0  0  0  0  0  0  0
  -11.9237    3.1854   28.8964 C   0  0  0  0  0  0  0  0  0  0  0  0
  -13.2901    3.2656   29.3371 C   0  0  0  0  0  0  0  0  0  0  0  0
  -14.1290    4.0042   28.4662 C   0  0  0  0  0  0  0  0  0  0  0  0
  -13.6573    4.5754   27.3111 C   0  0  0  0  0  0  0  0  0  0  0  0
  -12.2716    4.5401   26.9999 C   0  0  0  0  0  0  0  0  0  0  0  0
   -9.9409    1.3006   26.9650 C   0  0  0  0  0  0  0  0  0  0  0  0
   -9.9526    0.8070   25.8701 C   0  0  0  0  0  0  0  0  0  0  0  0
  -10.6418   -0.4038   25.5361 C   0  0  0  0  0  0  0  0  0  0  0  0
  -11.4685   -0.9043   26.5274 C   0  0  0  0  0  0  0  0  0  0  0  0
  -11.4983   -0.3640   27.8385 C   0  0  0  0  0  0  0  0  0  0  0  0
  -10.7052    0.7688   28.0580 C   0  0  0  0  0  0  0  0  0  0  0  0
   -7.1533    6.4182   28.2275 Cl  0  0  0  0  0  0  0  0  0  0  0  0
  -13.8864    2.6397   30.5270 C   0  0  0  0  0  0  0  0  0  0  0  0
  -13.5892    3.0014   31.6122 O   0  0  0  0  0  0  0  0  0  0  0  0
  -14.6388    1.6107   30.3495 O   0  0  0  0  0  0  0  0  0  0  0  0
   -9.0051    1.3853   24.5032 Cl  0  0  0  0  0  0  0  0  0  0  0  0
  6  7  1  0
  5 13  1  0
  2 19  1  0
  9 20  1  0
 20 21  2  0
 20 22  1  0
 14 23  1  0
 13 14  2  0
 14 15  1  0
 15 16  2  0
 16 17  1  0
 17 18  2  0
 18 13  1  0
  1  2  2  0
  2  3  1  0
  3  6  2  0
  6  5  1  0
  5  4  2  0
  4  1  1  0
  7  8  2  0
  8  9  1  0
  9 10  2  0
 10 11  1  0
 11 12  2  0
 12  7  1  0
M  END
$$$$
