No_3856-complexes_sdf/6BKW-FPZ/2024-09-17-14-21-01/
     RDKit          3D

  4  3  0  0  0  0  0  0  0  0999 V2000
   -7.7129    4.2099   27.0854 C   0  0  0  0  0  0  0  0  0  0  0  0
   -7.7814    5.1722   27.8972 C   0  0  0  0  0  0  0  0  0  0  0  0
   -8.8522    3.8137   26.2657 C   0  0  0  0  0  0  0  0  0  0  0  0
   -9.9224    4.6845   26.2875 C   0  0  0  0  0  0  0  0  0  0  0  0
  1  2  3  0
  1  3  1  0
  3  4  1  0
M  END
$$$$
