No_3443-complexes_sdf/6BKW-FPZ/2024-09-17-14-21-01/
     RDKit          3D

 36 41  0  0  0  0  0  0  0  0999 V2000
   -7.7129    4.2099   27.0854 C   0  0  0  0  0  0  0  0  0  0  0  0
   -8.2112    3.0637   26.9225 C   0  0  0  0  0  0  0  0  0  0  0  0
   -7.0021    4.5281   28.2396 C   0  0  0  0  0  0  0  0  0  0  0  0
   -7.5497    1.9016   27.4549 C   0  0  0  0  0  0  0  0  0  0  0  0
   -8.0831    0.6050   27.2852 C   0  0  0  0  0  0  0  0  0  0  0  0
   -9.3847    0.5379   26.8015 C   0  0  0  0  0  0  0  0  0  0  0  0
  -10.0898    1.6195   26.3689 C   0  0  0  0  0  0  0  0  0  0  0  0
   -9.4935    2.8855   26.3990 C   0  0  0  0  0  0  0  0  0  0  0  0
   -8.4282    5.3501   26.4864 C   0  0  0  0  0  0  0  0  0  0  0  0
   -8.1324    6.7275   26.9078 C   0  0  0  0  0  0  0  0  0  0  0  0
   -6.8072    5.9069   28.7250 C   0  0  0  0  0  0  0  0  0  0  0  0
   -7.3323    6.9157   28.0107 C   0  0  0  0  0  0  0  0  0  0  0  0
  -11.4222    1.4160   25.7630 C   0  0  0  0  0  0  0  0  0  0  0  0
  -12.2798    2.2434   25.6434 C   0  0  0  0  0  0  0  0  0  0  0  0
  -13.5776    2.1052   25.0244 C   0  0  0  0  0  0  0  0  0  0  0  0
  -13.8510    0.8574   24.5930 C   0  0  0  0  0  0  0  0  0  0  0  0
  -12.9437   -0.1358   24.7239 C   0  0  0  0  0  0  0  0  0  0  0  0
  -11.7099    0.0629   25.3352 C   0  0  0  0  0  0  0  0  0  0  0  0
  -13.3072   -1.5041   24.2860 C   0  0  0  0  0  0  0  0  0  0  0  0
  -13.8084   -1.8229   23.3569 C   0  0  0  0  0  0  0  0  0  0  0  0
  -14.0703   -2.6735   22.7371 C   0  0  0  0  0  0  0  0  0  0  0  0
  -13.6332   -3.9659   23.3680 C   0  0  0  0  0  0  0  0  0  0  0  0
  -12.9660   -3.8721   24.5162 C   0  0  0  0  0  0  0  0  0  0  0  0
  -12.6667   -2.6186   25.0453 C   0  0  0  0  0  0  0  0  0  0  0  0
  -12.4400   -5.0748   25.2153 C   0  0  0  0  0  0  0  0  0  0  0  0
  -12.5719   -6.0681   25.0750 C   0  0  0  0  0  0  0  0  0  0  0  0
  -12.0059   -7.1875   25.8250 C   0  0  0  0  0  0  0  0  0  0  0  0
  -11.1712   -6.8492   26.8815 C   0  0  0  0  0  0  0  0  0  0  0  0
  -11.4748   -4.6070   26.3963 C   0  0  0  0  0  0  0  0  0  0  0  0
  -10.9442   -5.3317   27.0169 C   0  0  0  0  0  0  0  0  0  0  0  0
  -10.5281   -7.8349   27.6902 C   0  0  0  0  0  0  0  0  0  0  0  0
  -10.4823   -8.8402   27.6120 C   0  0  0  0  0  0  0  0  0  0  0  0
   -9.8058   -9.8183   28.5152 C   0  0  0  0  0  0  0  0  0  0  0  0
   -9.1013   -9.2907   29.5792 C   0  0  0  0  0  0  0  0  0  0  0  0
   -9.1008   -7.9196   29.7255 C   0  0  0  0  0  0  0  0  0  0  0  0
   -9.7541   -7.1064   28.8547 C   0  0  0  0  0  0  0  0  0  0  0  0
  1  2  1  0
  7 13  1  0
 17 19  1  0
 23 25  1  0
 28 31  1  0
  1  3  2  0
  3 11  1  0
 11 12  2  0
 12 10  1  0
 10  9  2  0
  9  1  1  0
 25 26  2  0
 26 27  1  0
 27 28  2  0
 28 30  1  0
 30 29  2  0
 29 25  1  0
 31 32  2  0
 32 33  1  0
 33 34  2  0
 34 35  1  0
 35 36  2  0
 36 31  1  0
 19 20  2  0
 20 21  1  0
 21 22  2  0
 22 23  1  0
 23 24  2  0
 24 19  1  0
  2  4  2  0
  4  5  1  0
  5  6  2  0
  6  7  1  0
  7  8  2  0
  8  2  1  0
 13 14  2  0
 14 15  1  0
 15 16  2  0
 16 17  1  0
 17 18  2  0
 18 13  1  0
M  END
$$$$
