No_3714-complexes_sdf/6BKW-FPZ/2024-09-17-14-21-01/
     RDKit          3D

 40 44  0  0  0  0  0  0  0  0999 V2000
   -7.9040    3.9820   27.1177 C   0  0  0  0  0  0  0  0  0  0  0  0
   -8.2057    2.8231   26.8733 C   0  0  0  0  0  0  0  0  0  0  0  0
   -8.7695    5.0740   26.7916 C   0  0  0  0  0  0  0  0  0  0  0  0
   -8.4337    6.4678   27.0913 C   0  0  0  0  0  0  0  0  0  0  0  0
   -9.3742    2.4311   26.2346 C   0  0  0  0  0  0  0  0  0  0  0  0
  -10.2395    3.4267   25.8887 C   0  0  0  0  0  0  0  0  0  0  0  0
   -9.9567    4.7548   26.1374 C   0  0  0  0  0  0  0  0  0  0  0  0
   -7.3600    6.6952   26.9116 F   0  0  0  0  0  0  0  0  0  0  0  0
   -9.4316    7.2335   27.3394 F   0  0  0  0  0  0  0  0  0  0  0  0
   -7.2429    1.6888   27.2958 C   0  0  0  0  0  0  0  0  0  0  0  0
   -5.9703    1.9897   27.8213 C   0  0  0  0  0  0  0  0  0  0  0  0
   -5.0908    0.9338   28.2061 C   0  0  0  0  0  0  0  0  0  0  0  0
   -5.5108   -0.3572   28.1377 C   0  0  0  0  0  0  0  0  0  0  0  0
   -7.5565    0.3324   27.2768 C   0  0  0  0  0  0  0  0  0  0  0  0
   -6.7571   -0.6297   27.7209 C   0  0  0  0  0  0  0  0  0  0  0  0
   -4.7322   -1.5001   28.6918 C   0  0  0  0  0  0  0  0  0  0  0  0
   -3.6345   -1.4280   29.2179 N   0  0  0  0  0  0  0  0  0  0  0  0
   -5.1942   -2.6885   28.6284 O   0  0  0  0  0  0  0  0  0  0  0  0
   -2.9468   -0.1271   29.5080 C   0  0  0  0  0  0  0  0  0  0  0  0
  -11.4615    3.1518   25.0973 C   0  0  0  0  0  0  0  0  0  0  0  0
  -12.5740    2.8305   25.7211 C   0  0  0  0  0  0  0  0  0  0  0  0
  -11.4196    3.2355   23.6786 C   0  0  0  0  0  0  0  0  0  0  0  0
  -12.4502    3.0308   22.8969 C   0  0  0  0  0  0  0  0  0  0  0  0
  -13.7710    2.6308   24.9432 C   0  0  0  0  0  0  0  0  0  0  0  0
  -13.6775    2.7352   23.5545 C   0  0  0  0  0  0  0  0  0  0  0  0
   -1.8916   -0.2480   30.2135 O   0  0  0  0  0  0  0  0  0  0  0  0
   -3.0718    1.0050   28.9303 O   0  0  0  0  0  0  0  0  0  0  0  0
   -3.8875    1.4535   28.6032 C   0  0  0  0  0  0  0  0  0  0  0  0
  -10.1728    3.6075   23.0506 N   0  0  0  0  0  0  0  0  0  0  0  0
  -12.7284    2.7873   27.2023 C   0  0  0  0  0  0  0  0  0  0  0  0
  -12.4274    1.7676   27.8818 C   0  0  0  0  0  0  0  0  0  0  0  0
  -12.4457    1.8093   29.3424 C   0  0  0  0  0  0  0  0  0  0  0  0
  -12.8519    3.0451   29.9644 C   0  0  0  0  0  0  0  0  0  0  0  0
  -13.1556    4.0973   27.7975 C   0  0  0  0  0  0  0  0  0  0  0  0
  -13.1541    4.1554   29.1699 C   0  0  0  0  0  0  0  0  0  0  0  0
  -15.0505    2.3214   25.6048 C   0  0  0  0  0  0  0  0  0  0  0  0
  -15.9324    1.8474   25.2738 N   0  0  0  0  0  0  0  0  0  0  0  0
  -16.1733    1.3334   24.2348 C   0  0  0  0  0  0  0  0  0  0  0  0
  -17.3835    0.7662   23.9286 C   0  0  0  0  0  0  0  0  0  0  0  0
  -17.1064    1.3909   26.1685 C   0  0  0  0  0  0  0  0  0  0  0  0
  3  4  1  0
  4  8  1  0
  4  9  1  0
  2 10  1  0
 13 16  1  0
 16 17  1  0
 16 18  2  0
 17 19  1  0
  6 20  1  0
 19 26  2  0
 19 27  1  0
 12 28  1  0
 27 28  1  0
 22 29  1  0
 21 30  1  0
 24 36  1  0
 36 37  1  0
 37 38  1  0
 38 39  2  0
 37 40  1  0
 10 11  2  0
 11 12  1  0
 12 13  2  0
 13 15  1  0
 15 14  2  0
 14 10  1  0
 30 31  2  0
 31 32  1  0
 32 33  2  0
 33 35  1  0
 35 34  2  0
 34 30  1  0
  1  2  2  0
  2  5  1  0
  5  6  2  0
  6  7  1  0
  7  3  2  0
  3  1  1  0
 20 21  2  0
 21 24  1  0
 24 25  2  0
 25 23  1  0
 23 22  2  0
 22 20  1  0
M  END
$$$$
