No_3140-complexes_sdf/6BKW-FPZ/2024-09-17-14-21-01/
     RDKit          3D

 28 31  0  0  0  0  0  0  0  0999 V2000
   -7.2496    3.8871   27.4508 C   0  0  0  0  0  0  0  0  0  0  0  0
   -7.9379    4.9063   27.8518 C   0  0  0  0  0  0  0  0  0  0  0  0
   -8.9501    5.3664   27.1340 C   0  0  0  0  0  0  0  0  0  0  0  0
   -7.8297    2.9727   26.4637 C   0  0  0  0  0  0  0  0  0  0  0  0
   -9.6373    4.6098   26.1956 C   0  0  0  0  0  0  0  0  0  0  0  0
   -9.0235    3.4546   25.8531 C   0  0  0  0  0  0  0  0  0  0  0  0
   -9.6280    2.5544   24.8729 C   0  0  0  0  0  0  0  0  0  0  0  0
   -9.3935    1.2576   24.7986 C   0  0  0  0  0  0  0  0  0  0  0  0
   -9.9726    0.4970   23.8212 C   0  0  0  0  0  0  0  0  0  0  0  0
  -10.7964    1.1192   22.8078 C   0  0  0  0  0  0  0  0  0  0  0  0
  -10.4539    3.1293   23.8290 C   0  0  0  0  0  0  0  0  0  0  0  0
  -10.9958    2.4644   22.8835 C   0  0  0  0  0  0  0  0  0  0  0  0
   -5.8150    3.2426   28.1938 Cl  0  0  0  0  0  0  0  0  0  0  0  0
  -11.8659    3.0984   21.8692 C   0  0  2  0  0  0  0  0  0  0  0  0
  -11.3539    3.7511   20.9502 C   0  0  0  0  0  0  0  0  0  0  0  0
  -12.8522    4.0044   22.5709 C   0  0  0  0  0  0  0  0  0  0  0  0
  -12.8214    1.9774   21.2569 C   0  0  0  0  0  0  0  0  0  0  0  0
  -12.7249    4.0697   23.9625 C   0  0  2  0  0  0  0  0  0  0  0  0
  -13.6751    4.7436   24.8957 C   0  0  0  0  0  0  0  0  0  0  0  0
  -11.5028    3.6673   24.7712 C   0  0  0  0  0  0  0  0  0  0  0  0
  -14.4266    4.1504   25.8179 C   0  0  0  0  0  0  0  0  0  0  0  0
  -15.2004    4.8282   26.6585 C   0  0  0  0  0  0  0  0  0  0  0  0
  -15.3990    4.5461   28.0237 C   0  0  0  0  0  0  0  0  0  0  0  0
  -14.9971    3.2865   28.4535 C   0  0  0  0  0  0  0  0  0  0  0  0
  -14.1635    2.5157   27.6111 C   0  0  0  0  0  0  0  0  0  0  0  0
  -13.7774    2.9564   26.4248 C   0  0  0  0  0  0  0  0  0  0  0  0
  -13.6679    2.3033   20.6582 C   0  0  0  0  0  0  0  0  0  0  0  0
  -11.9202    0.5165   22.1287 C   0  0  0  0  0  0  0  0  0  0  0  0
  6  7  1  0
  1 13  1  0
 12 14  1  0
 14 15  1  6
 14 16  1  0
 14 17  1  0
 16 18  1  0
 18 19  1  6
 11 20  1  0
 18 20  1  0
 19 21  1  0
 17 27  2  0
 17 28  1  0
  7  8  2  0
  8  9  1  0
  9 10  2  0
 10 12  1  0
 12 11  2  0
 11  7  1  0
  1  2  2  0
  2  3  1  0
  3  5  2  0
  5  6  1  0
  6  4  2  0
  4  1  1  0
 21 22  2  0
 22 23  1  0
 23 24  2  0
 24 25  1  0
 25 26  2  0
 26 21  1  0
M  END
$$$$
