No_3903-complexes_sdf/6BKW-FPZ/2024-09-17-14-21-01/
     RDKit          3D

 32 37  0  0  0  0  0  0  0  0999 V2000
   -7.9040    3.9820   27.1177 C   0  0  0  0  0  0  0  0  0  0  0  0
   -7.8663    4.8694   27.9238 C   0  0  0  0  0  0  0  0  0  0  0  0
   -9.0501    3.8017   26.2617 C   0  0  0  0  0  0  0  0  0  0  0  0
  -10.0189    4.7608   26.3707 C   0  0  0  0  0  0  0  0  0  0  0  0
   -8.6770    5.9780   27.9222 C   0  0  0  0  0  0  0  0  0  0  0  0
   -9.8040    5.8752   27.0958 C   0  0  0  0  0  0  0  0  0  0  0  0
   -9.1434    2.6226   25.4210 C   0  0  0  0  0  0  0  0  0  0  0  0
   -8.6414    1.4248   25.8504 C   0  0  0  0  0  0  0  0  0  0  0  0
   -8.2425    1.2894   27.1408 C   0  0  0  0  0  0  0  0  0  0  0  0
   -7.4626    2.5809   27.6382 C   0  0  0  0  0  0  0  0  0  0  0  0
   -9.9656    2.7302   24.2252 C   0  0  0  0  0  0  0  0  0  0  0  0
   -9.9661    1.7131   23.3016 C   0  0  0  0  0  0  0  0  0  0  0  0
   -9.2096    0.8346   23.3352 C   0  0  0  0  0  0  0  0  0  0  0  0
   -8.6358    0.3905   24.7887 C   0  0  0  0  0  0  0  0  0  0  0  0
   -7.9194   -0.8309   24.9628 C   0  0  0  0  0  0  0  0  0  0  0  0
   -7.7236   -1.3949   25.8815 N   0  0  0  0  0  0  0  0  0  0  0  0
   -6.8409   -2.3011   26.1400 C   0  0  1  0  0  0  0  0  0  0  0  0
   -7.3351   -1.2561   23.8782 O   0  0  0  0  0  0  0  0  0  0  0  0
   -6.5930   -2.7813   27.4973 C   0  0  1  0  0  0  0  0  0  0  0  0
   -6.6470   -3.8885   27.9673 C   0  0  0  0  0  0  0  0  0  0  0  0
   -7.0136   -4.9524   27.1158 C   0  0  0  0  0  0  0  0  0  0  0  0
   -6.9815   -4.7305   25.7595 C   0  0  0  0  0  0  0  0  0  0  0  0
   -7.4861   -3.5291   25.3958 C   0  0  0  0  0  0  0  0  0  0  0  0
   -5.4414   -2.0957   25.5803 C   0  0  0  0  0  0  0  0  0  0  0  0
   -4.3883   -2.1539   26.2816 C   0  0  0  0  0  0  0  0  0  0  0  0
   -4.2863   -1.2244   27.3515 C   0  0  0  0  0  0  0  0  0  0  0  0
   -4.9904   -1.5467   28.5799 C   0  0  0  0  0  0  0  0  0  0  0  0
   -5.9833   -1.8248   28.4601 C   0  0  0  0  0  0  0  0  0  0  0  0
   -3.2708   -0.0917   27.3984 C   0  0  0  0  0  0  0  0  0  0  0  0
   -3.3943    0.7766   28.3606 C   0  0  0  0  0  0  0  0  0  0  0  0
   -3.9348    0.5118   29.7113 C   0  0  0  0  0  0  0  0  0  0  0  0
   -4.8914   -0.4884   29.7790 C   0  0  0  0  0  0  0  0  0  0  0  0
 14 15  1  0
 15 16  1  0
 17 16  1  1
 15 18  2  0
 17 19  1  0
 20 21  1  0
 17 23  1  0
 22 23  1  0
 17 24  1  0
 24 25  1  0
 19 28  1  6
 25 26  1  0
 28 27  1  0
 19 20  1  0
 21 22  1  0
  8 14  2  0
 14 13  1  0
 13 12  2  0
 12 11  1  0
 11  7  2  0
  3  7  1  0
  7  8  1  0
  8  9  1  0
  9 10  2  0
 10  1  1  0
 26 27  2  0
 27 32  1  0
 32 31  2  0
 31 30  1  0
 30 29  2  0
 29 26  1  0
  1  2  2  0
  2  5  1  0
  5  6  2  0
  6  4  1  0
  4  3  2  0
  3  1  1  0
M  END
$$$$
