No_3024-complexes_sdf/6BKW-FPZ/2024-09-17-14-21-01/
     RDKit          3D

 29 33  0  0  0  0  0  0  0  0999 V2000
   -7.7129    4.2099   27.0854 C   0  0  0  0  0  0  0  0  0  0  0  0
   -8.2112    3.0637   26.9225 C   0  0  0  0  0  0  0  0  0  0  0  0
   -7.5138    1.9223   27.4249 C   0  0  0  0  0  0  0  0  0  0  0  0
   -8.5309    5.4147   26.8151 C   0  0  0  0  0  0  0  0  0  0  0  0
   -8.1184    6.7672   27.1362 C   0  0  0  0  0  0  0  0  0  0  0  0
   -6.1372    2.1405   27.7998 C   0  0  0  0  0  0  0  0  0  0  0  0
   -5.3663    1.0158   28.2582 C   0  0  0  0  0  0  0  0  0  0  0  0
   -5.9108   -0.2353   28.2737 C   0  0  0  0  0  0  0  0  0  0  0  0
   -7.2228   -0.4195   27.8447 C   0  0  0  0  0  0  0  0  0  0  0  0
   -8.0045    0.6466   27.4034 C   0  0  0  0  0  0  0  0  0  0  0  0
   -9.5546    2.8692   26.6791 C   0  0  0  0  0  0  0  0  0  0  0  0
  -10.3851    3.9771   26.3129 C   0  0  0  0  0  0  0  0  0  0  0  0
   -9.8525    5.2622   26.4273 C   0  0  0  0  0  0  0  0  0  0  0  0
   -8.2371    8.0900   26.0137 P   0  0  0  0  0  0  0  0  0  0  0  0
   -9.3312    8.1104   25.5656 O   0  0  0  0  0  0  0  0  0  0  0  0
   -8.2065    9.1418   27.2913 O   0  0  0  0  0  0  0  0  0  0  0  0
   -6.9897    8.2763   25.3868 O   0  0  0  0  0  0  0  0  0  0  0  0
   -5.2599   -1.4561   28.7663 C   0  0  0  0  0  0  0  0  0  0  0  0
   -3.9743   -1.3023   29.3174 C   0  0  0  0  0  0  0  0  0  0  0  0
   -3.3853    0.0156   29.2190 C   0  0  0  0  0  0  0  0  0  0  0  0
   -3.9998    1.1614   28.7690 C   0  0  0  0  0  0  0  0  0  0  0  0
   -3.1865   -2.3903   29.8332 C   0  0  0  0  0  0  0  0  0  0  0  0
   -3.6700   -3.2589   30.4780 C   0  0  0  0  0  0  0  0  0  0  0  0
   -1.7828   -2.4154   29.5030 C   0  0  0  0  0  0  0  0  0  0  0  0
   -3.1444   -4.4937   30.7686 C   0  0  0  0  0  0  0  0  0  0  0  0
   -1.0870   -3.6177   29.8146 C   0  0  0  0  0  0  0  0  0  0  0  0
   -1.7373   -4.5937   30.5546 C   0  0  0  0  0  0  0  0  0  0  0  0
  -10.1357    1.5357   26.5172 C   0  0  0  0  0  0  0  0  0  0  0  0
   -9.3396    0.4382   27.0011 C   0  0  0  0  0  0  0  0  0  0  0  0
  5 14  1  0
 14 15  1  0
 14 16  1  0
 14 17  2  0
 19 22  1  0
  5  4  1  0
  8 18  2  0
 18 19  1  0
 19 20  2  0
 20 21  1  0
 21  7  2  0
  2  3  1  0
 10 29  1  0
 29 28  2  0
 28 11  1  0
  1  2  2  0
  2 11  1  0
 11 12  2  0
 12 13  1  0
 13  4  2  0
  4  1  1  0
  3  6  2  0
  6  7  1  0
  7  8  1  0
  8  9  1  0
  9 10  2  0
 10  3  1  0
 22 23  2  0
 23 25  1  0
 25 27  2  0
 27 26  1  0
 26 24  2  0
 24 22  1  0
M  END
$$$$
