No_3070-complexes_sdf/6BKW-FPZ/2024-09-17-14-21-01/
     RDKit          3D

 22 24  0  0  0  0  0  0  0  0999 V2000
   -7.9040    3.9820   27.1177 C   0  0  0  0  0  0  0  0  0  0  0  0
   -8.2057    2.8231   26.8733 C   0  0  0  0  0  0  0  0  0  0  0  0
   -9.2962    2.4021   26.1155 C   0  0  0  0  0  0  0  0  0  0  0  0
   -8.7358    5.0662   26.5917 C   0  0  0  0  0  0  0  0  0  0  0  0
   -9.7618    4.7023   25.7546 C   0  0  0  0  0  0  0  0  0  0  0  0
  -10.0066    3.4105   25.4922 C   0  0  0  0  0  0  0  0  0  0  0  0
   -8.3936    6.4769   26.8843 C   0  0  0  0  0  0  0  0  0  0  0  0
   -8.5391    7.3874   26.1546 O   0  0  0  0  0  0  0  0  0  0  0  0
   -7.6749    6.5423   28.0051 O   0  0  0  0  0  0  0  0  0  0  0  0
   -7.3580    1.6608   27.4957 C   0  0  0  0  0  0  0  0  0  0  0  0
   -7.7389    0.4023   27.4012 N   0  0  0  0  0  0  0  0  0  0  0  0
   -6.9300   -0.4871   27.9062 C   0  0  0  0  0  0  0  0  0  0  0  0
   -5.7303   -0.3220   28.0366 C   0  0  0  0  0  0  0  0  0  0  0  0
   -5.1475    1.0350   27.9802 C   0  0  0  0  0  0  0  0  0  0  0  0
   -5.9584    2.0259   27.5915 C   0  0  0  0  0  0  0  0  0  0  0  0
   -4.7621   -1.3807   28.5625 C   0  0  0  0  0  0  0  0  0  0  0  0
   -4.9101   -2.0598   29.3660 C   0  0  0  0  0  0  0  0  0  0  0  0
   -3.9259   -3.0801   29.8590 C   0  0  0  0  0  0  0  0  0  0  0  0
   -4.0860   -3.8633   30.9706 C   0  0  0  0  0  0  0  0  0  0  0  0
   -5.3100   -3.7242   31.6825 C   0  0  0  0  0  0  0  0  0  0  0  0
   -6.0838   -2.8795   31.4413 C   0  0  0  0  0  0  0  0  0  0  0  0
   -6.0551   -1.9270   30.3784 C   0  0  0  0  0  0  0  0  0  0  0  0
  4  7  1  0
  7  8  2  0
  7  9  1  0
  2 10  1  0
 13 16  1  0
 16 17  1  0
 17 18  2  0
 18 19  1  0
 19 20  2  0
 20 21  1  0
 21 22  2  0
 22 17  1  0
  1  2  2  0
  2  3  1  0
  3  6  2  0
  6  5  1  0
  5  4  2  0
  4  1  1  0
 10 11  2  0
 11 12  1  0
 12 13  2  0
 13 14  1  0
 14 15  2  0
 15 10  1  0
M  END
$$$$
