No_3052-complexes_sdf/6BKW-FPZ/2024-09-17-14-21-01/
     RDKit          3D

 27 30  0  0  0  0  0  0  0  0999 V2000
   -7.9040    3.9820   27.1177 C   0  0  0  0  0  0  0  0  0  0  0  0
   -7.8663    4.8694   27.9238 C   0  0  0  0  0  0  0  0  0  0  0  0
   -7.4698    2.6989   27.4277 C   0  0  0  0  0  0  0  0  0  0  0  0
   -7.9683    1.5964   26.8266 C   0  0  0  0  0  0  0  0  0  0  0  0
   -8.9447    1.7923   25.8533 C   0  0  0  0  0  0  0  0  0  0  0  0
   -9.4405    2.9988   25.5757 C   0  0  0  0  0  0  0  0  0  0  0  0
   -8.9424    4.1117   26.2388 C   0  0  0  0  0  0  0  0  0  0  0  0
   -8.3103    6.1970   27.6444 N   0  0  0  0  0  0  0  0  0  0  0  0
   -9.2017    6.5264   26.7040 C   0  0  0  0  0  0  0  0  0  0  0  0
   -9.5492    5.4018   25.9329 C   0  0  0  0  0  0  0  0  0  0  0  0
   -7.3783    0.2539   27.0964 C   0  0  0  0  0  0  0  0  0  0  0  0
   -6.0866    0.1289   27.5719 C   0  0  0  0  0  0  0  0  0  0  0  0
   -5.4658   -0.9515   27.8761 C   0  0  0  0  0  0  0  0  0  0  0  0
   -6.2099   -2.1389   27.7683 C   0  0  0  0  0  0  0  0  0  0  0  0
   -8.0044   -0.9465   27.0261 C   0  0  0  0  0  0  0  0  0  0  0  0
   -7.4868   -2.1080   27.3649 C   0  0  0  0  0  0  0  0  0  0  0  0
   -4.0594   -0.9568   28.4073 C   0  0  1  0  0  0  0  0  0  0  0  0
   -3.1928   -0.0295   27.8736 C   0  0  0  0  0  0  0  0  0  0  0  0
   -3.5848   -1.7856   29.4399 C   0  0  0  0  0  0  0  0  0  0  0  0
   -4.0146   -1.6555   30.6158 C   0  0  0  0  0  0  0  0  0  0  0  0
   -4.2142   -0.4430   31.2708 C   0  0  0  0  0  0  0  0  0  0  0  0
   -4.8845   -0.3285   32.5677 C   0  0  0  0  0  0  0  0  0  0  0  0
   -5.3229   -1.4974   33.1829 C   0  0  0  0  0  0  0  0  0  0  0  0
   -5.1515   -2.7113   32.6214 C   0  0  0  0  0  0  0  0  0  0  0  0
   -4.5209   -2.8083   31.3776 C   0  0  0  0  0  0  0  0  0  0  0  0
   -2.1221   -0.2776   27.3635 O   0  0  0  0  0  0  0  0  0  0  0  0
   -3.2836    1.3450   28.2992 O   0  0  0  0  0  0  0  0  0  0  0  0
  4 11  1  0
 13 17  1  0
 17 18  1  0
 17 19  1  1
 19 20  1  0
 18 26  2  0
 18 27  1  0
  1  2  2  0
  2  8  1  0
  8  9  2  0
  9 10  1  0
 10  7  2  0
 11 12  2  0
 12 13  1  0
 13 14  2  0
 14 16  1  0
 16 15  2  0
 15 11  1  0
 20 21  2  0
 21 22  1  0
 22 23  2  0
 23 24  1  0
 24 25  2  0
 25 20  1  0
  1  3  1  0
  3  4  2  0
  4  5  1  0
  5  6  2  0
  6  7  1  0
  7  1  1  0
M  END
$$$$
