No_3102-complexes_sdf/6BKW-FPZ/2024-09-17-14-21-01/
     RDKit          3D

 40 45  0  0  0  0  0  0  0  0999 V2000
   -7.7129    4.2099   27.0854 C   0  0  0  0  0  0  0  0  0  0  0  0
   -8.9133    4.4736   27.0998 C   0  0  0  0  0  0  0  0  0  0  0  0
   -9.7937    3.7368   26.2091 C   0  0  0  0  0  0  0  0  0  0  0  0
   -7.2496    2.8647   26.8496 C   0  0  0  0  0  0  0  0  0  0  0  0
   -8.1309    1.9724   26.7411 C   0  0  0  0  0  0  0  0  0  0  0  0
   -9.4001    2.3796   26.2290 C   0  0  0  0  0  0  0  0  0  0  0  0
   -9.3893    6.3766   27.1623 Br  0  0  0  0  0  0  0  0  0  0  0  0
   -7.7390    0.5518   26.5439 C   0  0  0  0  0  0  0  0  0  0  0  0
   -8.3312   -0.3167   26.0927 C   0  0  0  0  0  0  0  0  0  0  0  0
   -9.7070   -0.0062   25.5745 C   0  0  0  0  0  0  0  0  0  0  0  0
  -10.2193    1.3354   25.6096 C   0  0  0  0  0  0  0  0  0  0  0  0
   -6.5798    5.2852   28.0706 Cl  0  0  0  0  0  0  0  0  0  0  0  0
   -8.0319   -1.7655   26.1429 C   0  0  0  0  0  0  0  0  0  0  0  0
   -8.6908   -2.6145   26.7121 C   0  0  0  0  0  0  0  0  0  0  0  0
   -8.3353   -3.9538   26.8385 C   0  0  0  0  0  0  0  0  0  0  0  0
   -7.1327   -4.3197   26.2355 C   0  0  0  0  0  0  0  0  0  0  0  0
   -6.7248   -2.0900   25.5976 C   0  0  0  0  0  0  0  0  0  0  0  0
   -6.3108   -3.3928   25.6089 C   0  0  0  0  0  0  0  0  0  0  0  0
  -11.4896    1.5996   25.0519 C   0  0  0  0  0  0  0  0  0  0  0  0
  -12.4523    1.6759   25.7213 C   0  0  0  0  0  0  0  0  0  0  0  0
  -13.7549    2.0718   25.2581 C   0  0  0  0  0  0  0  0  0  0  0  0
  -11.5003    1.8808   23.6661 C   0  0  0  0  0  0  0  0  0  0  0  0
  -12.7128    2.2742   23.0674 C   0  0  0  0  0  0  0  0  0  0  0  0
  -13.8235    2.3819   23.8990 C   0  0  0  0  0  0  0  0  0  0  0  0
  -15.1251    2.7751   23.2955 C   0  0  0  0  0  0  0  0  0  0  0  0
  -16.0234    3.4207   23.9970 C   0  0  0  0  0  0  0  0  0  0  0  0
  -15.6747    3.7946   25.3344 C   0  0  0  0  0  0  0  0  0  0  0  0
  -14.6709    3.0166   26.0349 C   0  0  0  0  0  0  0  0  0  0  0  0
  -14.4759    3.1198   27.5014 C   0  0  0  0  0  0  0  0  0  0  0  0
  -14.6423    4.2141   28.0663 C   0  0  0  0  0  0  0  0  0  0  0  0
  -14.5160    4.3781   29.5516 C   0  0  0  0  0  0  0  0  0  0  0  0
  -13.9198    3.2668   30.2412 C   0  0  0  0  0  0  0  0  0  0  0  0
  -13.5916    2.1239   29.5301 C   0  0  0  0  0  0  0  0  0  0  0  0
  -13.8315    2.0202   28.1603 C   0  0  0  0  0  0  0  0  0  0  0  0
  -13.6598    3.4306   31.6985 C   0  0  0  0  0  0  0  0  0  0  0  0
  -14.6996    3.4407   32.5872 C   0  0  0  0  0  0  0  0  0  0  0  0
  -15.9232    3.3844   32.2487 C   0  0  0  0  0  0  0  0  0  0  0  0
  -16.9862    3.3800   33.2586 C   0  0  0  0  0  0  0  0  0  0  0  0
  -16.5722    3.5476   34.6002 C   0  0  0  0  0  0  0  0  0  0  0  0
  -15.2713    3.6614   34.9778 C   0  0  0  0  0  0  0  0  0  0  0  0
  2  7  1  0
  1 12  1  0
  9 13  1  0
 11 19  1  0
 28 29  1  0
 32 35  1  0
 35 36  2  3
 36 37  1  0
 37 38  2  3
 38 39  1  0
 39 40  2  0
  1  2  2  0
  2  3  1  0
  3  6  2  0
  5  4  2  0
  4  1  1  0
  5  6  1  0
  6 11  1  0
 11 10  2  0
 10  9  1  0
  9  8  2  0
  8  5  1  0
 24 25  2  0
 25 26  1  0
 26 27  2  0
 27 28  1  0
 28 21  2  0
 13 14  2  0
 14 15  1  0
 15 16  2  0
 16 18  1  0
 18 17  2  0
 17 13  1  0
 29 30  2  0
 30 31  1  0
 31 32  2  0
 32 33  1  0
 33 34  2  0
 34 29  1  0
 19 20  2  0
 20 21  1  0
 21 24  1  0
 24 23  1  0
 23 22  2  0
 22 19  1  0
M  END
$$$$
