No_3165-complexes_sdf/6BKW-FPZ/2024-09-17-14-21-01/
     RDKit          3D

 16 17  0  0  0  0  0  0  0  0999 V2000
   -7.9040    3.9820   27.1177 C   0  0  0  0  0  0  0  0  0  0  0  0
   -8.2057    2.8231   26.8733 C   0  0  0  0  0  0  0  0  0  0  0  0
   -8.7695    5.0740   26.7916 C   0  0  0  0  0  0  0  0  0  0  0  0
   -9.9618    4.7598   26.1630 C   0  0  0  0  0  0  0  0  0  0  0  0
   -7.3763    1.7038   27.3414 C   0  0  0  0  0  0  0  0  0  0  0  0
   -9.4134    2.4504   26.3004 C   0  0  0  0  0  0  0  0  0  0  0  0
   -9.7333    1.0748   26.0466 C   0  0  0  0  0  0  0  0  0  0  0  0
  -10.2741    3.4518   25.8746 C   0  0  0  0  0  0  0  0  0  0  0  0
   -7.6240    0.4085   27.2076 N   0  0  0  0  0  0  0  0  0  0  0  0
   -8.7894    0.0823   26.5584 C   0  0  0  0  0  0  0  0  0  0  0  0
   -8.4235    6.5133   27.0521 C   0  0  0  0  0  0  0  0  0  0  0  0
   -7.9494    6.9958   28.1171 N   0  0  0  0  0  0  0  0  0  0  0  0
   -8.6878    7.4391   26.0890 N   0  0  0  0  0  0  0  0  0  0  0  0
   -6.1527    1.9852   27.9723 N   0  0  0  0  0  0  0  0  0  0  0  0
   -5.3351    0.9370   28.2510 C   0  0  0  0  0  0  0  0  0  0  0  0
   -5.7051   -0.3235   28.2379 C   0  0  0  0  0  0  0  0  0  0  0  0
  3 11  1  0
 11 12  2  0
 11 13  1  0
  5 14  1  0
 14 15  2  3
 15 16  1  0
  1  2  2  0
  6  8  2  0
  8  4  1  0
  4  3  2  0
  3  1  1  0
  2  5  1  0
  5  9  2  0
  9 10  1  0
 10  7  2  0
  7  6  1  0
  6  2  1  0
M  END
$$$$
