No_3750-complexes_sdf/6BKW-FPZ/2024-09-17-14-21-01/
     RDKit          3D

 13 14  0  0  0  0  0  0  0  0999 V2000
   -7.7129    4.2099   27.0854 C   0  0  0  0  0  0  0  0  0  0  0  0
   -7.7814    5.1722   27.8972 C   0  0  0  0  0  0  0  0  0  0  0  0
   -8.8255    3.2789   27.1191 C   0  0  0  0  0  0  0  0  0  0  0  0
   -9.9209    3.4734   27.9101 C   0  0  0  0  0  0  0  0  0  0  0  0
   -9.9736    4.7085   28.6831 C   0  0  0  0  0  0  0  0  0  0  0  0
   -8.8840    5.5441   28.6612 C   0  0  0  0  0  0  0  0  0  0  0  0
   -8.7102    2.0171   26.3293 C   0  0  2  0  0  0  0  0  0  0  0  0
   -7.9109    1.0355   26.5669 N   0  0  0  0  0  0  0  0  0  0  0  0
   -7.0634    1.0588   27.6679 C   0  0  0  0  0  0  0  0  0  0  0  0
   -6.2176   -0.0849   27.9004 C   0  0  0  0  0  0  0  0  0  0  0  0
   -7.9645   -0.2972   26.1676 C   0  0  0  0  0  0  0  0  0  0  0  0
   -6.8899   -0.9344   26.9168 C   0  0  0  0  0  0  0  0  0  0  0  0
   -9.3468    2.0543   25.2201 F   0  0  0  0  0  0  0  0  0  0  0  0
  3  7  1  0
  7  8  1  0
  8  9  1  0
  9 10  2  0
  8 11  1  0
 10 12  1  0
 11 12  2  0
  7 13  1  6
  1  2  2  0
  2  6  1  0
  6  5  2  0
  5  4  1  0
  4  3  2  0
  3  1  1  0
M  END
$$$$
