No_3591-complexes_sdf/6BKW-FPZ/2024-09-17-14-21-01/
     RDKit          3D

 19 21  0  0  0  0  0  0  0  0999 V2000
   -7.9040    3.9820   27.1177 C   0  0  0  0  0  0  0  0  0  0  0  0
   -8.2057    2.8231   26.8733 C   0  0  0  0  0  0  0  0  0  0  0  0
   -8.7695    5.0740   26.7916 C   0  0  0  0  0  0  0  0  0  0  0  0
   -9.9618    4.7598   26.1630 C   0  0  0  0  0  0  0  0  0  0  0  0
   -9.4200    2.4524   26.2850 C   0  0  0  0  0  0  0  0  0  0  0  0
  -10.2590    3.4815   25.9250 C   0  0  0  0  0  0  0  0  0  0  0  0
   -8.3305    6.7026   27.1366 Cl  0  0  0  0  0  0  0  0  0  0  0  0
   -7.2614    1.6871   27.2777 C   0  0  0  0  0  0  0  0  0  0  0  0
   -7.5325    0.3441   27.1745 C   0  0  0  0  0  0  0  0  0  0  0  0
   -6.6668   -0.6019   27.6336 C   0  0  0  0  0  0  0  0  0  0  0  0
   -5.4256   -0.1684   28.1944 C   0  0  0  0  0  0  0  0  0  0  0  0
   -5.1222    1.1933   28.2596 C   0  0  0  0  0  0  0  0  0  0  0  0
   -5.9539    2.0815   27.8375 C   0  0  0  0  0  0  0  0  0  0  0  0
   -4.4763   -1.2066   28.7263 C   0  0  0  0  0  0  0  0  0  0  0  0
   -3.7638   -1.7971   28.0742 C   0  0  0  0  0  0  0  0  0  0  0  0
   -2.7165   -2.7396   28.6035 C   0  0  0  0  0  0  0  0  0  0  0  0
   -4.4531   -1.2720   30.1794 C   0  0  0  0  0  0  0  0  0  0  0  0
   -3.5080   -2.1405   30.8101 C   0  0  0  0  0  0  0  0  0  0  0  0
   -2.6564   -2.8555   29.9946 C   0  0  0  0  0  0  0  0  0  0  0  0
  3  7  1  0
  2  8  1  0
 11 14  1  0
  8  9  2  0
  9 10  1  0
 10 11  2  0
 11 12  1  0
 12 13  2  0
 13  8  1  0
  1  2  2  0
  2  5  1  0
  5  6  2  0
  6  4  1  0
  4  3  2  0
  3  1  1  0
 14 15  2  0
 15 16  1  0
 16 19  2  0
 19 18  1  0
 18 17  2  0
 17 14  1  0
M  END
$$$$
