No_3166-complexes_sdf/6BKW-FPZ/2024-09-17-14-21-01/
     RDKit          3D

 34 39  0  0  0  0  0  0  0  0999 V2000
   -7.9040    3.9820   27.1177 C   0  0  0  0  0  0  0  0  0  0  0  0
   -8.2057    2.8231   26.8733 C   0  0  0  0  0  0  0  0  0  0  0  0
   -9.2962    2.4021   26.1155 C   0  0  0  0  0  0  0  0  0  0  0  0
   -8.7358    5.0662   26.5917 C   0  0  0  0  0  0  0  0  0  0  0  0
   -9.7618    4.7023   25.7546 C   0  0  0  0  0  0  0  0  0  0  0  0
  -10.0066    3.4105   25.4922 C   0  0  0  0  0  0  0  0  0  0  0  0
   -8.3943    6.4760   26.8801 C   0  0  0  0  0  0  0  0  0  0  0  0
   -8.3483    7.4622   26.0291 C   0  0  0  0  0  0  0  0  0  0  0  0
   -8.0263    8.7347   26.7220 C   0  0  0  0  0  0  0  0  0  0  0  0
   -7.8630    6.6771   28.1475 C   0  0  0  0  0  0  0  0  0  0  0  0
   -7.7429    5.5796   28.9166 N   0  0  0  0  0  0  0  0  0  0  0  0
   -7.5629    4.2670   28.4055 C   0  0  0  0  0  0  0  0  0  0  0  0
   -7.4784    7.9041   28.2685 N   0  0  0  0  0  0  0  0  0  0  0  0
  -10.9788    3.1007   24.3869 C   0  0  0  0  0  0  0  0  0  0  0  0
  -10.6214    2.5591   23.3182 C   0  0  0  0  0  0  0  0  0  0  0  0
  -11.4908    2.2982   22.1729 C   0  0  0  0  0  0  0  0  0  0  0  0
  -12.7890    2.7422   22.2688 C   0  0  0  0  0  0  0  0  0  0  0  0
  -12.3557    3.5592   24.4566 C   0  0  0  0  0  0  0  0  0  0  0  0
  -13.1920    3.4048   23.4484 C   0  0  0  0  0  0  0  0  0  0  0  0
   -7.4549    1.6346   27.4936 C   0  0  0  0  0  0  0  0  0  0  0  0
   -7.7410    0.2942   27.2418 C   0  0  0  0  0  0  0  0  0  0  0  0
   -9.0631    0.0377   26.9798 C   0  0  0  0  0  0  0  0  0  0  0  0
   -9.7513    1.0451   26.0533 C   0  0  0  0  0  0  0  0  0  0  0  0
   -6.9644   -0.7065   27.9261 C   0  0  0  0  0  0  0  0  0  0  0  0
   -6.3744   -1.2927   27.3555 N   0  0  0  0  0  0  0  0  0  0  0  0
   -5.4708   -2.3044   27.8870 C   0  0  0  0  0  0  0  0  0  0  0  0
   -4.9100   -2.3075   28.7904 C   0  0  0  0  0  0  0  0  0  0  0  0
   -5.5123   -1.3579   29.8661 C   0  0  0  0  0  0  0  0  0  0  0  0
   -6.4616   -0.4656   29.3295 C   0  0  0  0  0  0  0  0  0  0  0  0
   -5.0529   -1.1673   31.2496 C   0  0  1  0  0  0  0  0  0  0  0  0
   -3.9860   -0.3085   31.3963 C   0  0  0  0  0  0  0  0  0  0  0  0
   -5.7555   -1.7464   32.2681 C   0  0  0  0  0  0  0  0  0  0  0  0
   -3.1734    0.3317   30.4391 C   0  0  0  0  0  0  0  0  0  0  0  0
   -6.7114   -2.3320   32.3689 C   0  0  0  0  0  0  0  0  0  0  0  0
  4  7  1  0
  7  8  2  0
  8  9  1  0
  7 10  1  0
 10 11  1  0
  1 12  1  0
 11 12  1  0
  9 13  1  0
 10 13  2  0
  6 14  1  0
 21 24  1  0
 28 30  1  0
 30 31  1  1
 30 32  1  0
 31 33  1  0
 32 34  2  0
 24 25  2  0
 25 26  1  0
 26 27  2  0
 27 28  1  0
 28 29  2  0
 29 24  1  0
  1  2  1  0
  3  6  1  0
  6  5  2  0
  5  4  1  0
  4  1  2  0
  2  3  2  0
  3 23  1  0
 23 22  2  0
 22 21  1  0
 21 20  2  0
 20  2  1  0
 14 15  2  0
 15 16  1  0
 16 17  2  0
 17 19  1  0
 19 18  2  0
 18 14  1  0
M  END
$$$$
