No_3244-complexes_sdf/6BKW-FPZ/2024-09-17-14-21-01/
     RDKit          3D

 13 14  0  0  0  0  0  0  0  0999 V2000
   -7.9040    3.9820   27.1177 C   0  0  0  0  0  0  0  0  0  0  0  0
   -9.0711    4.3164   27.0630 C   0  0  0  0  0  0  0  0  0  0  0  0
   -9.5294    5.4517   27.7215 C   0  0  0  0  0  0  0  0  0  0  0  0
   -6.9328    4.7309   27.8881 C   0  0  0  0  0  0  0  0  0  0  0  0
   -7.3377    5.8421   28.5537 C   0  0  0  0  0  0  0  0  0  0  0  0
   -8.6411    6.2609   28.3972 C   0  0  0  0  0  0  0  0  0  0  0  0
  -10.0493    3.4953   26.2711 C   0  0  1  0  0  0  0  0  0  0  0  0
  -10.5585    3.8087   25.3240 C   0  0  0  0  0  0  0  0  0  0  0  0
  -10.8383    3.5874   24.3866 C   0  0  0  0  0  0  0  0  0  0  0  0
  -10.7801    2.1766   24.0050 C   0  0  0  0  0  0  0  0  0  0  0  0
  -10.2693    2.1856   26.6638 C   0  0  0  0  0  0  0  0  0  0  0  0
  -10.6515    1.1381   24.8380 C   0  0  0  0  0  0  0  0  0  0  0  0
  -10.6499    1.3206   26.1993 C   0  0  0  0  0  0  0  0  0  0  0  0
  7  2  1  6
  7  8  1  0
  8  9  2  0
  9 10  1  0
  7 11  1  0
 10 12  2  0
 11 13  1  0
 12 13  1  0
  1  2  2  0
  2  3  1  0
  3  6  2  0
  6  5  1  0
  5  4  2  0
  4  1  1  0
M  END
$$$$
