No_3507-complexes_sdf/6BKW-FPZ/2024-09-17-14-21-01/
     RDKit          3D

 26 28  0  0  0  0  0  0  0  0999 V2000
   -7.9040    3.9820   27.1177 C   0  0  0  0  0  0  0  0  0  0  0  0
   -8.2057    2.8231   26.8733 C   0  0  0  0  0  0  0  0  0  0  0  0
   -8.7695    5.0740   26.7916 C   0  0  0  0  0  0  0  0  0  0  0  0
   -8.4337    6.4678   27.0913 C   0  0  0  0  0  0  0  0  0  0  0  0
   -9.3742    2.4311   26.2346 C   0  0  0  0  0  0  0  0  0  0  0  0
  -10.2395    3.4267   25.8887 C   0  0  0  0  0  0  0  0  0  0  0  0
   -9.9567    4.7548   26.1374 C   0  0  0  0  0  0  0  0  0  0  0  0
   -7.9449    7.5014   26.9590 N   0  0  0  0  0  0  0  0  0  0  0  0
   -7.0833    1.8146   27.3712 C   0  0  0  0  0  0  0  0  0  0  0  0
   -5.8092    2.1957   27.5764 C   0  0  0  0  0  0  0  0  0  0  0  0
   -4.8743    1.2320   28.0946 C   0  0  0  0  0  0  0  0  0  0  0  0
   -5.1979   -0.1030   28.1684 C   0  0  0  0  0  0  0  0  0  0  0  0
   -7.3430    0.3994   27.4431 C   0  0  0  0  0  0  0  0  0  0  0  0
   -6.4770   -0.4766   27.8914 C   0  0  0  0  0  0  0  0  0  0  0  0
   -4.1924   -1.0502   28.7290 C   0  0  2  0  0  0  0  0  0  0  0  0
   -3.5227   -0.9355   29.7132 C   0  0  0  0  0  0  0  0  0  0  0  0
   -3.8822    0.0814   30.7286 C   0  0  0  0  0  0  0  0  0  0  0  0
   -3.7017   -0.3978   32.0956 C   0  0  0  0  0  0  0  0  0  0  0  0
   -2.6738   -1.2790   32.4206 C   0  0  0  0  0  0  0  0  0  0  0  0
   -2.1757   -2.0984   31.3869 C   0  0  0  0  0  0  0  0  0  0  0  0
   -2.6060   -1.9462   30.1155 C   0  0  0  0  0  0  0  0  0  0  0  0
   -3.8789   -2.0146   27.6600 C   0  0  0  0  0  0  0  0  0  0  0  0
   -2.2410   -1.3890   33.8311 C   0  0  0  0  0  0  0  0  0  0  0  0
   -2.5626   -0.7275   34.5104 O   0  0  0  0  0  0  0  0  0  0  0  0
   -1.1315   -2.0634   33.9896 O   0  0  0  0  0  0  0  0  0  0  0  0
   -3.0543   -1.9650   26.8046 C   0  0  0  0  0  0  0  0  0  0  0  0
  3  4  1  0
  4  8  3  0
  2  9  1  0
 12 15  1  0
 15 16  1  0
 15 22  1  6
 19 23  1  0
 23 24  1  0
 23 25  2  0
 22 26  2  0
  1  2  2  0
  2  5  1  0
  5  6  2  0
  6  7  1  0
  7  3  2  0
  3  1  1  0
  9 10  2  0
 10 11  1  0
 11 12  2  0
 12 14  1  0
 14 13  2  0
 13  9  1  0
 16 17  2  0
 17 18  1  0
 18 19  2  0
 19 20  1  0
 20 21  2  0
 21 16  1  0
M  END
$$$$
