No_370-complexes_sdf/6BKW-FPZ/2024-09-17-14-21-01/
     RDKit          3D

 12 12  0  0  0  0  0  0  0  0999 V2000
   -7.2496    3.8871   27.4508 C   0  0  1  0  0  0  0  0  0  0  0  0
   -8.5096    4.0291   27.2770 C   0  0  0  0  0  0  0  0  0  0  0  0
   -9.2677    5.1714   27.5773 C   0  0  0  0  0  0  0  0  0  0  0  0
   -9.2765    2.8248   26.8371 C   0  0  0  0  0  0  0  0  0  0  0  0
  -10.4623    3.0171   26.3237 C   0  0  0  0  0  0  0  0  0  0  0  0
  -10.6079    5.2706   27.2578 C   0  0  0  0  0  0  0  0  0  0  0  0
  -11.2590    4.1999   26.7166 C   0  0  0  0  0  0  0  0  0  0  0  0
   -6.5504    4.9781   27.7985 F   0  0  0  0  0  0  0  0  0  0  0  0
   -6.3923    2.4494   27.6027 Cl  0  0  0  0  0  0  0  0  0  0  0  0
  -11.1683    1.9535   25.6520 C   0  0  0  0  0  0  0  0  0  0  0  0
  -11.3880    1.6982   24.6308 C   0  0  0  0  0  0  0  0  0  0  0  0
  -12.0011    0.5260   23.9876 C   0  0  0  0  0  0  0  0  0  0  0  0
  1  2  1  0
  1  8  1  1
  1  9  1  0
  5 10  1  0
 10 11  2  3
 11 12  1  0
  2  3  2  0
  3  6  1  0
  6  7  2  0
  7  5  1  0
  5  4  2  0
  4  2  1  0
M  END
$$$$
