No_3975-complexes_sdf/6BKW-FPZ/2024-09-17-14-21-01/
     RDKit          3D

 12 13  0  0  0  0  0  0  0  0999 V2000
   -7.9040    3.9820   27.1177 C   0  0  0  0  0  0  0  0  0  0  0  0
   -7.8663    4.8694   27.9238 C   0  0  0  0  0  0  0  0  0  0  0  0
   -7.4698    2.6989   27.4277 C   0  0  0  0  0  0  0  0  0  0  0  0
   -6.1691    2.6024   27.7920 C   0  0  0  0  0  0  0  0  0  0  0  0
   -8.5263    6.1540   27.6333 C   0  0  0  0  0  0  0  0  0  0  0  0
   -5.6071    1.3999   28.1085 N   0  0  0  0  0  0  0  0  0  0  0  0
   -8.8334    4.1293   26.0123 C   0  0  0  0  0  0  0  0  0  0  0  0
   -9.4883    5.3550   25.7115 C   0  0  0  0  0  0  0  0  0  0  0  0
   -9.2709    6.4210   26.5838 C   0  0  0  0  0  0  0  0  0  0  0  0
   -6.2331    0.2530   27.8948 C   0  0  0  0  0  0  0  0  0  0  0  0
   -7.5346    0.2715   27.4192 C   0  0  0  0  0  0  0  0  0  0  0  0
   -8.1578    1.5256   27.1298 C   0  0  0  0  0  0  0  0  0  0  0  0
  1  3  1  0
  3  4  2  0
  4  6  1  0
  6 10  2  0
 10 11  1  0
 11 12  2  0
 12  3  1  0
  1  2  2  0
  2  5  1  0
  5  9  2  0
  9  8  1  0
  8  7  2  0
  7  1  1  0
M  END
$$$$
