No_3361-complexes_sdf/6BKW-FPZ/2024-09-17-14-21-01/
     RDKit          3D

 23 25  0  0  0  0  0  0  0  0999 V2000
   -7.9040    3.9820   27.1177 C   0  0  0  0  0  0  0  0  0  0  0  0
   -9.0711    4.3164   27.0630 C   0  0  0  0  0  0  0  0  0  0  0  0
   -9.5294    5.4517   27.7215 C   0  0  0  0  0  0  0  0  0  0  0  0
   -9.9845    3.5634   26.2189 C   0  0  0  0  0  0  0  0  0  0  0  0
   -9.6295    2.5733   25.6121 C   0  0  0  0  0  0  0  0  0  0  0  0
   -7.4226    2.6598   26.7196 C   0  0  0  0  0  0  0  0  0  0  0  0
   -8.3452    1.9310   25.9988 C   0  0  0  0  0  0  0  0  0  0  0  0
   -6.8769    4.5032   28.0771 C   0  0  0  0  0  0  0  0  0  0  0  0
   -7.2062    5.8452   28.5576 C   0  0  0  0  0  0  0  0  0  0  0  0
   -8.5738    6.2641   28.3923 C   0  0  0  0  0  0  0  0  0  0  0  0
  -10.4080    1.7344   24.6782 C   0  0  0  0  0  0  0  0  0  0  0  0
  -11.1862    2.0700   23.9232 C   0  0  0  0  0  0  0  0  0  0  0  0
  -11.9718    1.2934   22.9386 C   0  0  0  0  0  0  0  0  0  0  0  0
  -11.6319   -0.0484   22.9069 C   0  0  0  0  0  0  0  0  0  0  0  0
  -10.0964    0.3266   24.4680 C   0  0  0  0  0  0  0  0  0  0  0  0
  -10.6881   -0.4960   23.6685 C   0  0  0  0  0  0  0  0  0  0  0  0
  -12.3768   -0.7741   22.0325 F   0  0  0  0  0  0  0  0  0  0  0  0
   -5.6711    4.1429   28.1176 F   0  0  0  0  0  0  0  0  0  0  0  0
  -13.0302    1.8702   22.0864 C   0  0  0  0  0  0  0  0  0  0  0  0
  -12.7516    2.5677   21.2094 F   0  0  0  0  0  0  0  0  0  0  0  0
  -13.7990    2.6728   22.9653 F   0  0  0  0  0  0  0  0  0  0  0  0
  -13.9566    0.9109   21.7186 F   0  0  0  0  0  0  0  0  0  0  0  0
  -10.2293   -2.1401   23.5946 Cl  0  0  0  0  0  0  0  0  0  0  0  0
  5 11  1  0
 14 17  1  0
  8 18  1  0
 13 19  1  0
 19 20  1  0
 19 21  1  0
 19 22  1  0
 16 23  1  0
  2  4  1  0
  4  5  2  0
  5  7  1  0
  7  6  2  0
  6  1  1  0
 11 12  2  0
 12 13  1  0
 13 14  2  0
 14 16  1  0
 16 15  2  0
 15 11  1  0
  1  2  1  0
  2  3  2  0
  3 10  1  0
 10  9  2  0
  9  8  1  0
  8  1  2  0
M  END
$$$$
