No_3021-complexes_sdf/6BKW-FPZ/2024-09-17-14-21-01/
     RDKit          3D

 12 12  0  0  0  0  0  0  0  0999 V2000
   -7.7129    4.2099   27.0854 C   0  0  0  0  0  0  0  0  0  0  0  0
   -8.9133    4.4736   27.0998 C   0  0  0  0  0  0  0  0  0  0  0  0
   -9.4643    5.5426   27.7628 C   0  0  0  0  0  0  0  0  0  0  0  0
   -7.1220    4.1625   28.1614 C   0  0  0  0  0  0  0  0  0  0  0  0
   -5.6504    3.7200   28.0177 C   0  0  0  0  0  0  0  0  0  0  0  0
   -9.8626    3.9016   26.0725 C   0  0  0  0  0  0  0  0  0  0  0  0
   -9.7473    4.2638   24.8141 C   0  0  0  0  0  0  0  0  0  0  0  0
  -10.5520    3.7469   23.7691 C   0  0  0  0  0  0  0  0  0  0  0  0
  -11.3790    2.7140   24.0941 C   0  0  0  0  0  0  0  0  0  0  0  0
  -10.6276    2.8197   26.2514 C   0  0  0  0  0  0  0  0  0  0  0  0
  -10.6478    2.2834   27.7040 C   0  0  0  0  0  0  0  0  0  0  0  0
  -11.4351    2.2203   25.3877 C   0  0  0  0  0  0  0  0  0  0  0  0
  1  2  1  0
  2  3  2  0
  1  4  1  0
  4  5  1  0
  2  6  1  0
 10 11  1  0
  6  7  2  0
  7  8  1  0
  8  9  2  0
  9 12  1  0
 12 10  2  0
 10  6  1  0
M  END
$$$$
