No_3961-complexes_sdf/6BKW-FPZ/2024-09-17-14-21-01/
     RDKit          3D

 27 30  0  0  0  0  0  0  0  0999 V2000
   -7.7129    4.2099   27.0854 C   0  0  0  0  0  0  0  0  0  0  0  0
   -7.7814    5.1722   27.8972 C   0  0  0  0  0  0  0  0  0  0  0  0
   -8.8776    3.8408   26.3416 C   0  0  0  0  0  0  0  0  0  0  0  0
   -8.9136    2.6330   25.5655 C   0  0  0  0  0  0  0  0  0  0  0  0
   -8.8361    6.1389   27.9032 C   0  0  0  0  0  0  0  0  0  0  0  0
   -9.9718    4.7048   26.3433 C   0  0  0  0  0  0  0  0  0  0  0  0
   -9.9205    5.8499   27.1013 C   0  0  0  0  0  0  0  0  0  0  0  0
   -9.7172    1.7020   26.0925 C   0  0  0  0  0  0  0  0  0  0  0  0
   -9.7345    0.3823   25.4735 C   0  0  0  0  0  0  0  0  0  0  0  0
   -8.9505    0.2462   24.3805 C   0  0  0  0  0  0  0  0  0  0  0  0
   -8.8241   -1.0291   23.8727 C   0  0  0  0  0  0  0  0  0  0  0  0
   -7.9672   -1.1856   22.7227 C   0  0  0  0  0  0  0  0  0  0  0  0
   -7.4293   -0.0151   22.1276 C   0  0  0  0  0  0  0  0  0  0  0  0
   -7.7865    1.1712   22.6198 C   0  0  0  0  0  0  0  0  0  0  0  0
   -8.4881    1.3690   23.6833 C   0  0  0  0  0  0  0  0  0  0  0  0
   -8.3738    2.5023   24.3851 N   0  0  0  0  0  0  0  0  0  0  0  0
   -6.7449    5.6039   28.7096 O   0  0  0  0  0  0  0  0  0  0  0  0
   -7.7361   -2.5091   22.0792 C   0  0  0  0  0  0  0  0  0  0  0  0
   -6.5983   -3.1124   22.5150 C   0  0  0  0  0  0  0  0  0  0  0  0
   -5.9290   -2.7112   23.4746 N   0  0  0  0  0  0  0  0  0  0  0  0
   -5.5224   -1.6875   23.8654 C   0  0  0  0  0  0  0  0  0  0  0  0
   -4.7381   -1.5128   25.1698 C   0  0  0  0  0  0  0  0  0  0  0  0
   -5.0885   -0.6270   26.1126 C   0  0  0  0  0  0  0  0  0  0  0  0
   -4.3411   -0.5220   27.2551 C   0  0  0  0  0  0  0  0  0  0  0  0
   -3.1233   -1.2050   27.4251 C   0  0  0  0  0  0  0  0  0  0  0  0
   -2.7191   -2.0592   26.4090 C   0  0  0  0  0  0  0  0  0  0  0  0
   -3.4878   -2.1952   25.2762 C   0  0  0  0  0  0  0  0  0  0  0  0
  3  4  1  0
  2 17  1  0
 12 18  1  0
 18 19  1  0
 19 20  1  0
 20 21  1  0
 21 22  1  0
  4  8  2  0
  8  9  1  0
  9 10  2  0
 15 16  2  0
 16  4  1  0
 22 23  2  0
 23 24  1  0
 24 25  2  0
 25 26  1  0
 26 27  2  0
 27 22  1  0
 10 11  1  0
 11 12  2  0
 12 13  1  0
 13 14  2  0
 14 15  1  0
 15 10  1  0
  1  2  2  0
  2  5  1  0
  5  7  2  0
  7  6  1  0
  6  3  2  0
  3  1  1  0
M  END
$$$$
