No_3423-complexes_sdf/6BKW-FPZ/2024-09-17-14-21-01/
     RDKit          3D

 37 41  0  0  0  0  0  0  0  0999 V2000
   -7.9040    3.9820   27.1177 C   0  0  0  0  0  0  0  0  0  0  0  0
   -8.2057    2.8231   26.8733 C   0  0  0  0  0  0  0  0  0  0  0  0
   -8.7695    5.0740   26.7916 C   0  0  0  0  0  0  0  0  0  0  0  0
   -8.4337    6.4678   27.0913 C   0  0  0  0  0  0  0  0  0  0  0  0
   -9.1945    2.4408   26.4350 C   0  0  0  0  0  0  0  0  0  0  0  0
  -10.2047    3.3522   26.0527 C   0  0  0  0  0  0  0  0  0  0  0  0
   -9.9687    4.6754   26.2340 C   0  0  0  0  0  0  0  0  0  0  0  0
   -7.9708    7.4965   26.9508 N   0  0  0  0  0  0  0  0  0  0  0  0
   -7.0990    1.7441   27.3406 C   0  0  0  0  0  0  0  0  0  0  0  0
   -7.2494    0.3738   27.2322 C   0  0  0  0  0  0  0  0  0  0  0  0
   -8.6025    0.0482   26.8202 C   0  0  0  0  0  0  0  0  0  0  0  0
   -9.4982    0.9466   26.3922 C   0  0  0  0  0  0  0  0  0  0  0  0
   -6.3016   -0.5185   27.6699 C   0  0  0  0  0  0  0  0  0  0  0  0
   -5.1541   -0.0887   28.1083 N   0  0  0  0  0  0  0  0  0  0  0  0
   -4.3272   -0.7974   28.9201 C   0  0  0  0  0  0  0  0  0  0  0  0
   -3.2126   -0.0714   29.4554 C   0  0  0  0  0  0  0  0  0  0  0  0
   -4.6464   -2.0582   29.3149 C   0  0  0  0  0  0  0  0  0  0  0  0
   -2.3568   -0.7259   30.3801 C   0  0  0  0  0  0  0  0  0  0  0  0
   -3.7339   -2.6703   30.2976 C   0  0  0  0  0  0  0  0  0  0  0  0
   -2.5925   -1.9465   30.7938 C   0  0  0  0  0  0  0  0  0  0  0  0
   -6.5430   -1.7633   27.5952 O   0  0  0  0  0  0  0  0  0  0  0  0
   -1.6802   -2.5705   31.7690 C   0  0  0  0  0  0  0  0  0  0  0  0
   -2.3629   -3.3735   32.6647 C   0  0  0  0  0  0  0  0  0  0  0  0
   -2.3787   -3.1215   33.8050 C   0  0  0  0  0  0  0  0  0  0  0  0
   -2.1642   -2.0621   34.4615 C   0  0  0  0  0  0  0  0  0  0  0  0
   -2.4082   -1.6893   35.8535 C   0  0  0  0  0  0  0  0  0  0  0  0
   -2.1690   -0.4004   36.4530 C   0  0  0  0  0  0  0  0  0  0  0  0
   -2.6995   -0.0777   37.6558 C   0  0  0  0  0  0  0  0  0  0  0  0
   -3.6730    0.1453   37.8569 C   0  0  0  0  0  0  0  0  0  0  0  0
   -4.2301    0.5536   39.1432 C   0  0  0  0  0  0  0  0  0  0  0  0
   -3.3297    0.7923   40.1628 C   0  0  0  0  0  0  0  0  0  0  0  0
   -1.7279    0.3452   38.7692 C   0  0  0  0  0  0  0  0  0  0  0  0
   -2.0517    0.7186   39.9257 C   0  0  0  0  0  0  0  0  0  0  0  0
   -1.3279    0.3502   35.7201 O   0  0  0  0  0  0  0  0  0  0  0  0
   -3.1991   -2.6300   36.5479 C   0  0  0  0  0  0  0  0  0  0  0  0
   -3.5290   -3.8275   35.8941 C   0  0  0  0  0  0  0  0  0  0  0  0
   -3.2479   -4.0584   34.6759 C   0  0  0  0  0  0  0  0  0  0  0  0
  3  4  1  0
  4  8  3  0
 10 13  1  0
 13 14  1  0
 14 15  1  0
 13 21  2  0
 20 22  1  0
 22 23  1  0
 26 27  1  0
 27 28  1  0
 27 34  2  0
 23 24  1  0
 28 29  2  0
 29 30  1  0
 30 31  2  0
 31 33  1  0
 33 32  2  0
 32 28  1  0
  1  2  2  0
  5  6  2  0
  6  7  1  0
  7  3  2  0
  3  1  1  0
  2  5  1  0
  5 12  1  0
 12 11  2  0
 11 10  1  0
 10  9  2  0
  9  2  1  0
 15 16  2  0
 16 18  1  0
 18 20  2  0
 20 19  1  0
 19 17  2  0
 17 15  1  0
 24 25  2  0
 25 26  1  0
 26 35  2  0
 35 36  1  0
 36 37  2  0
 37 24  1  0
M  END
$$$$
