No_3637-complexes_sdf/6BKW-FPZ/2024-09-17-14-21-01/
     RDKit          3D

 27 29  0  0  0  0  0  0  0  0999 V2000
   -7.7129    4.2099   27.0854 C   0  0  0  0  0  0  0  0  0  0  0  0
   -8.2112    3.0637   26.9225 C   0  0  0  0  0  0  0  0  0  0  0  0
   -8.5108    5.3904   26.9436 C   0  0  0  0  0  0  0  0  0  0  0  0
   -9.7256    5.1955   26.3518 C   0  0  0  0  0  0  0  0  0  0  0  0
   -9.4995    2.8258   26.4878 C   0  0  0  0  0  0  0  0  0  0  0  0
  -10.2542    3.9691   26.2055 C   0  0  0  0  0  0  0  0  0  0  0  0
   -7.9470    6.5632   27.1671 F   0  0  0  0  0  0  0  0  0  0  0  0
   -7.4156    1.9051   27.2332 N   0  0  0  0  0  0  0  0  0  0  0  0
   -6.1382    2.0166   27.7269 C   0  0  0  0  0  0  0  0  0  0  0  0
   -5.4401    0.7228   28.0199 C   0  0  0  0  0  0  0  0  0  0  0  0
   -4.1362    0.6806   28.5646 C   0  0  0  0  0  0  0  0  0  0  0  0
   -6.1602   -0.4319   27.6879 C   0  0  0  0  0  0  0  0  0  0  0  0
   -7.4283   -0.4094   27.2039 C   0  0  0  0  0  0  0  0  0  0  0  0
   -8.0797    0.7542   26.9775 C   0  0  1  0  0  0  0  0  0  0  0  0
   -3.3030    1.5055   28.4326 O   0  0  0  0  0  0  0  0  0  0  0  0
   -3.8643   -0.3749   29.4541 N   0  0  0  0  0  0  0  0  0  0  0  0
   -2.5940   -0.5490   30.1423 C   0  0  0  0  0  0  0  0  0  0  0  0
   -1.9544   -1.7503   29.6623 C   0  0  0  0  0  0  0  0  0  0  0  0
   -1.2855   -1.6488   28.6140 N   0  0  0  0  0  0  0  0  0  0  0  0
   -1.6088   -1.9665   27.5135 C   0  0  0  0  0  0  0  0  0  0  0  0
   -2.3869   -2.6879   27.1776 C   0  0  0  0  0  0  0  0  0  0  0  0
   -3.3491   -2.5792   26.5101 C   0  0  0  0  0  0  0  0  0  0  0  0
   -4.3723   -3.4586   25.9203 C   0  0  0  0  0  0  0  0  0  0  0  0
   -4.2398   -4.7224   26.3808 C   0  0  0  0  0  0  0  0  0  0  0  0
   -3.1872   -5.0526   27.2036 C   0  0  0  0  0  0  0  0  0  0  0  0
   -2.2729   -4.1446   27.6150 C   0  0  0  0  0  0  0  0  0  0  0  0
   -9.4071    0.6062   26.5777 C   0  0  0  0  0  0  0  0  0  0  0  0
  3  7  1  0
  2  8  1  0
  8  9  1  0
 10 11  1  0
 10 12  1  0
  8 14  1  0
 13 14  1  0
 11 15  2  0
 11 16  1  0
 16 17  1  0
 17 18  1  0
 18 19  1  0
 19 20  1  0
 20 21  1  0
 14 27  1  1
  9 10  1  0
 12 13  1  0
  1  2  2  0
  2  5  1  0
  5  6  2  0
  6  4  1  0
  4  3  2  0
  3  1  1  0
 21 22  2  0
 22 23  1  0
 23 24  2  0
 24 25  1  0
 25 26  2  0
 26 21  1  0
M  END
$$$$
