No_3083-complexes_sdf/6BKW-FPZ/2024-09-17-14-21-01/
     RDKit          3D

 40 44  0  0  0  0  0  0  0  0999 V2000
   -7.7129    4.2099   27.0854 C   0  0  0  0  0  0  0  0  0  0  0  0
   -8.9133    4.4736   27.0998 C   0  0  0  0  0  0  0  0  0  0  0  0
   -9.8363    3.8127   27.2418 C   0  0  0  0  0  0  0  0  0  0  0  0
   -7.2995    2.8520   27.3808 C   0  0  0  0  0  0  0  0  0  0  0  0
   -5.9719    2.4237   27.5059 C   0  0  0  0  0  0  0  0  0  0  0  0
   -9.6377    2.3570   27.5375 C   0  0  0  0  0  0  0  0  0  0  0  0
   -8.3201    1.9228   27.6137 C   0  0  0  0  0  0  0  0  0  0  0  0
   -5.0095    3.1653   28.2142 C   0  0  0  0  0  0  0  0  0  0  0  0
   -5.7323    1.0207   27.2961 C   0  0  0  0  0  0  0  0  0  0  0  0
   -9.1982    6.0398   26.7965 C   0  0  0  0  0  0  0  0  0  0  0  0
   -9.1903    6.3967   25.5911 F   0  0  0  0  0  0  0  0  0  0  0  0
   -8.1640    6.8679   27.3767 F   0  0  0  0  0  0  0  0  0  0  0  0
  -10.3210    6.4090   27.4461 F   0  0  0  0  0  0  0  0  0  0  0  0
   -4.4369    0.4818   27.5611 C   0  0  0  0  0  0  0  0  0  0  0  0
   -3.7763    2.5879   28.4660 N   0  0  0  0  0  0  0  0  0  0  0  0
   -3.4869    1.3499   28.1310 C   0  0  0  0  0  0  0  0  0  0  0  0
  -10.7836    1.4891   27.8019 C   0  0  2  0  0  0  0  0  0  0  0  0
  -11.8971    1.9734   28.3623 C   0  0  0  0  0  0  0  0  0  0  0  0
  -13.0031    1.1195   28.7163 C   0  0  0  0  0  0  0  0  0  0  0  0
  -14.1519    1.6345   29.3050 C   0  0  0  0  0  0  0  0  0  0  0  0
  -14.2191    3.0490   29.5538 C   0  0  0  0  0  0  0  0  0  0  0  0
  -13.1883    3.8851   29.1978 C   0  0  0  0  0  0  0  0  0  0  0  0
  -12.0994    3.4092   28.7148 C   0  0  0  0  0  0  0  0  0  0  0  0
  -10.6220    0.0974   27.5454 C   0  0  0  0  0  0  0  0  0  0  0  0
  -10.2209   -0.7906   28.3292 C   0  0  0  0  0  0  0  0  0  0  0  0
  -10.0095   -2.1756   28.1017 C   0  0  0  0  0  0  0  0  0  0  0  0
  -10.3163   -2.5740   26.8058 C   0  0  0  0  0  0  0  0  0  0  0  0
  -10.8418   -0.4559   26.2261 C   0  0  0  0  0  0  0  0  0  0  0  0
  -10.6881   -1.7008   25.8984 C   0  0  0  0  0  0  0  0  0  0  0  0
  -10.9243   -2.1532   24.6398 O   0  0  0  0  0  0  0  0  0  0  0  0
  -15.4985    3.5726   30.1846 C   0  0  0  0  0  0  0  0  0  0  0  0
  -16.4667    3.7623   29.5840 C   0  0  0  0  0  0  0  0  0  0  0  0
  -17.6234    4.3607   30.1485 C   0  0  0  0  0  0  0  0  0  0  0  0
  -17.5893    4.7369   31.5433 C   0  0  0  0  0  0  0  0  0  0  0  0
  -16.4153    4.5511   32.2568 C   0  0  0  0  0  0  0  0  0  0  0  0
  -15.2803    4.0359   31.6341 C   0  0  0  0  0  0  0  0  0  0  0  0
  -14.0604    3.8337   32.4261 C   0  0  0  0  0  0  0  0  0  0  0  0
  -14.2324    3.3695   33.7685 C   0  0  0  0  0  0  0  0  0  0  0  0
  -13.0879    3.3041   34.5839 C   0  0  0  0  0  0  0  0  0  0  0  0
  -12.0898    4.2107   34.5015 C   0  0  0  0  0  0  0  0  0  0  0  0
  4  5  1  0
  2 10  1  0
 10 11  1  0
 10 12  1  0
 10 13  1  0
 17  6  1  1
 17 24  1  0
 29 30  1  0
 21 31  1  0
 36 37  1  0
 37 38  2  3
 38 39  1  0
 39 40  2  0
 17 18  1  0
 18 19  2  0
 19 20  1  0
 20 21  2  0
 21 22  1  0
 22 23  2  0
 23 18  1  0
 24 25  2  0
 25 26  1  0
 26 27  2  0
 27 29  1  0
 29 28  2  0
 28 24  1  0
  1  2  2  0
  2  3  1  0
  3  6  2  0
  6  7  1  0
  7  4  2  0
  4  1  1  0
 31 32  2  0
 32 33  1  0
 33 34  2  0
 34 35  1  0
 35 36  2  0
 36 31  1  0
  5  8  2  0
  8 15  1  0
 15 16  2  0
 16 14  1  0
 14  9  2  0
  9  5  1  0
M  END
$$$$
