No_3032-complexes_sdf/6BKW-FPZ/2024-09-17-14-21-01/
     RDKit          3D

 23 24  0  0  0  0  0  0  0  0999 V2000
   -7.9040    3.9820   27.1177 C   0  0  0  0  0  0  0  0  0  0  0  0
   -8.2057    2.8231   26.8733 C   0  0  0  0  0  0  0  0  0  0  0  0
   -8.7695    5.0740   26.7916 C   0  0  0  0  0  0  0  0  0  0  0  0
   -8.4337    6.4678   27.0913 C   0  0  0  0  0  0  0  0  0  0  0  0
   -9.3742    2.4311   26.2346 C   0  0  0  0  0  0  0  0  0  0  0  0
  -10.2395    3.4267   25.8887 C   0  0  0  0  0  0  0  0  0  0  0  0
   -9.9567    4.7548   26.1374 C   0  0  0  0  0  0  0  0  0  0  0  0
   -7.8881    6.8714   28.1602 N   0  0  0  0  0  0  0  0  0  0  0  0
   -8.8350    7.3552   26.2295 O   0  0  0  0  0  0  0  0  0  0  0  0
   -7.3378    1.7907   27.2738 F   0  0  0  0  0  0  0  0  0  0  0  0
   -9.6232    0.9947   25.9636 C   0  0  0  0  0  0  0  0  0  0  0  0
  -10.0567    0.2664   26.8148 F   0  0  0  0  0  0  0  0  0  0  0  0
   -8.4083    0.4288   25.4967 F   0  0  0  0  0  0  0  0  0  0  0  0
  -10.4751    0.8673   24.8784 F   0  0  0  0  0  0  0  0  0  0  0  0
   -6.7496    4.3468   27.8164 O   0  0  0  0  0  0  0  0  0  0  0  0
  -11.3541    3.1473   25.2281 O   0  0  0  0  0  0  0  0  0  0  0  0
  -12.5038    3.2708   25.9086 C   0  0  0  0  0  0  0  0  0  0  0  0
  -13.5924    3.3644   25.0900 C   0  0  0  0  0  0  0  0  0  0  0  0
  -14.8603    3.5318   25.7177 C   0  0  0  0  0  0  0  0  0  0  0  0
  -16.0159    3.5830   25.0177 C   0  0  0  0  0  0  0  0  0  0  0  0
  -13.6869    3.6267   23.7373 C   0  0  0  0  0  0  0  0  0  0  0  0
  -14.7823    3.7526   22.9882 C   0  0  0  0  0  0  0  0  0  0  0  0
  -16.0006    3.8002   23.6583 C   0  0  0  0  0  0  0  0  0  0  0  0
  3  4  1  0
  4  8  1  0
  4  9  2  0
  2 10  1  0
  5 11  1  0
 11 12  1  0
 11 13  1  0
 11 14  1  0
  1 15  1  0
  6 16  1  0
 16 17  1  0
 17 18  1  0
  1  2  2  0
  2  5  1  0
  5  6  2  0
  6  7  1  0
  7  3  2  0
  3  1  1  0
 18 19  2  0
 19 20  1  0
 20 23  2  0
 23 22  1  0
 22 21  2  0
 21 18  1  0
M  END
$$$$
