No_3762-complexes_sdf/6BKW-FPZ/2024-09-17-14-21-01/
     RDKit          3D

 40 44  0  0  0  0  0  0  0  0999 V2000
   -7.9040    3.9820   27.1177 C   0  0  0  0  0  0  0  0  0  0  0  0
   -8.2057    2.8231   26.8733 C   0  0  0  0  0  0  0  0  0  0  0  0
   -7.4766    1.7477   27.4593 C   0  0  0  0  0  0  0  0  0  0  0  0
   -8.7468    5.1251   26.6967 C   0  0  0  0  0  0  0  0  0  0  0  0
   -8.4775    6.4967   27.1056 C   0  0  0  0  0  0  0  0  0  0  0  0
   -6.1172    2.0790   27.8378 C   0  0  0  0  0  0  0  0  0  0  0  0
   -5.7594    3.4209   27.9937 C   0  0  0  0  0  0  0  0  0  0  0  0
   -6.5892    4.3873   27.6368 C   0  0  0  0  0  0  0  0  0  0  0  0
   -9.6836    4.9131   25.6602 C   0  0  0  0  0  0  0  0  0  0  0  0
   -5.3718    0.8686   28.2433 C   0  0  0  0  0  0  0  0  0  0  0  0
   -5.7417   -0.4165   28.2200 C   0  0  0  0  0  0  0  0  0  0  0  0
   -4.9561   -1.4209   28.6219 C   0  0  0  0  0  0  0  0  0  0  0  0
   -3.6418   -1.1200   29.1094 C   0  0  0  0  0  0  0  0  0  0  0  0
   -3.1845    0.1714   29.1220 C   0  0  0  0  0  0  0  0  0  0  0  0
   -3.9665    1.1676   28.7468 C   0  0  0  0  0  0  0  0  0  0  0  0
  -10.0702    4.0302   25.0409 C   0  0  0  0  0  0  0  0  0  0  0  0
  -11.0189    3.9992   23.9654 C   0  0  0  0  0  0  0  0  0  0  0  0
  -11.2243    3.7952   22.9369 C   0  0  0  0  0  0  0  0  0  0  0  0
  -12.3908    4.0438   22.0684 C   0  0  0  0  0  0  0  0  0  0  0  0
  -12.5959    3.5856   20.7876 C   0  0  0  0  0  0  0  0  0  0  0  0
  -11.6480    2.9217   20.3606 C   0  0  0  0  0  0  0  0  0  0  0  0
  -10.4235    2.5571   20.8945 C   0  0  0  0  0  0  0  0  0  0  0  0
  -10.2272    3.0320   22.2271 C   0  0  0  0  0  0  0  0  0  0  0  0
   -9.3596    2.3501   26.1166 C   0  0  0  0  0  0  0  0  0  0  0  0
  -10.0294    2.9181   25.2089 C   0  0  0  0  0  0  0  0  0  0  0  0
   -2.7747   -2.2698   29.5696 C   0  0  0  0  0  0  0  0  0  0  0  0
   -1.6369   -2.2731   29.2693 C   0  0  0  0  0  0  0  0  0  0  0  0
   -3.4096   -3.2798   30.3444 C   0  0  0  0  0  0  0  0  0  0  0  0
   -4.3476   -3.1011   31.1304 C   0  0  0  0  0  0  0  0  0  0  0  0
   -5.1259   -4.1048   31.6654 C   0  0  0  0  0  0  0  0  0  0  0  0
   -4.7697   -5.3333   31.4342 C   0  0  0  0  0  0  0  0  0  0  0  0
   -3.7264   -5.6315   30.6071 C   0  0  0  0  0  0  0  0  0  0  0  0
   -3.0170   -4.5954   30.0016 C   0  0  0  0  0  0  0  0  0  0  0  0
   -1.0602   -2.6886   28.1451 N   0  0  0  0  0  0  0  0  0  0  0  0
   -1.3226   -2.1675   26.9953 C   0  0  0  0  0  0  0  0  0  0  0  0
   -0.1789   -3.8364   28.0344 C   0  0  0  0  0  0  0  0  0  0  0  0
   -1.4194   -2.7571   25.8024 C   0  0  0  0  0  0  0  0  0  0  0  0
   -2.3537   -3.5256   25.5913 C   0  0  0  0  0  0  0  0  0  0  0  0
   -2.3247   -4.4681   24.6431 C   0  0  0  0  0  0  0  0  0  0  0  0
   -1.2793   -4.4499   23.7265 C   0  0  0  0  0  0  0  0  0  0  0  0
  1  4  1  0
  4  5  2  0
  4  9  1  0
  6 10  1  0
  9 16  2  0
 16 17  1  0
  2 24  1  0
 16 25  1  0
 24 25  1  0
 13 26  1  0
 26 27  1  0
 26 28  1  0
 27 34  1  0
 34 35  1  0
 34 36  1  0
 35 37  1  0
 37 38  1  0
 38 39  2  3
 39 40  1  0
 17 18  1  0
 18 19  2  0
 19 20  1  0
 20 21  2  0
 21 22  1  0
 22 23  2  0
 23 18  1  0
 28 29  2  0
 29 30  1  0
 30 31  2  0
 31 32  1  0
 32 33  2  0
 33 28  1  0
 10 11  2  0
 11 12  1  0
 12 13  2  0
 13 14  1  0
 14 15  2  0
 15 10  1  0
  1  2  1  0
  2  3  2  0
  3  6  1  0
  6  7  2  0
  7  8  1  0
  8  1  2  0
M  END
$$$$
