No_3319-complexes_sdf/6BKW-FPZ/2024-09-17-14-21-01/
     RDKit          3D

 30 33  0  0  0  0  0  0  0  0999 V2000
   -7.9040    3.9820   27.1177 C   0  0  0  0  0  0  0  0  0  0  0  0
   -9.0711    4.3164   27.0630 C   0  0  0  0  0  0  0  0  0  0  0  0
   -9.5294    5.4517   27.7215 C   0  0  0  0  0  0  0  0  0  0  0  0
   -9.9845    3.5634   26.2189 C   0  0  0  0  0  0  0  0  0  0  0  0
   -9.6295    2.5733   25.6121 C   0  0  0  0  0  0  0  0  0  0  0  0
   -7.4226    2.6598   26.7196 C   0  0  0  0  0  0  0  0  0  0  0  0
   -8.3452    1.9310   25.9988 C   0  0  0  0  0  0  0  0  0  0  0  0
   -7.9325    0.6162   25.4795 C   0  0  0  0  0  0  0  0  0  0  0  0
   -8.5487   -0.3123   25.8175 N   0  0  0  0  0  0  0  0  0  0  0  0
   -9.4301   -0.4288   26.6063 C   0  0  0  0  0  0  0  0  0  0  0  0
   -9.9084    0.1259   27.3442 C   0  0  0  0  0  0  0  0  0  0  0  0
  -10.9758   -0.2125   28.4151 C   0  0  0  0  0  0  0  0  0  0  0  0
  -11.1926   -1.5212   28.5671 C   0  0  0  0  0  0  0  0  0  0  0  0
  -10.6695   -2.4348   27.6990 C   0  0  0  0  0  0  0  0  0  0  0  0
   -9.7684   -2.0077   26.8305 C   0  0  0  0  0  0  0  0  0  0  0  0
   -7.7718   -1.5397   25.2822 C   0  0  0  0  0  0  0  0  0  0  0  0
   -8.4857   -2.5608   25.2721 C   0  0  1  0  0  0  0  0  0  0  0  0
   -9.1705   -2.9650   26.0392 C   0  0  0  0  0  0  0  0  0  0  0  0
   -6.9769    4.5209   28.0149 F   0  0  0  0  0  0  0  0  0  0  0  0
   -8.8516   -2.8315   23.8242 C   0  0  0  0  0  0  0  0  0  0  0  0
   -9.2099   -1.9751   22.8561 C   0  0  0  0  0  0  0  0  0  0  0  0
   -8.8705   -4.2388   23.4412 C   0  0  0  0  0  0  0  0  0  0  0  0
   -7.1123    0.8076   24.5701 O   0  0  0  0  0  0  0  0  0  0  0  0
   -9.7383   -2.1210   21.6665 C   0  0  0  0  0  0  0  0  0  0  0  0
   -9.3452   -4.5095   22.1121 C   0  0  0  0  0  0  0  0  0  0  0  0
   -9.6944   -3.5004   21.2359 C   0  0  0  0  0  0  0  0  0  0  0  0
   -9.3945   -5.8731   21.6620 C   0  0  0  0  0  0  0  0  0  0  0  0
   -9.7731   -6.0903   20.6183 F   0  0  0  0  0  0  0  0  0  0  0  0
   -8.1454   -6.3932   21.8826 F   0  0  0  0  0  0  0  0  0  0  0  0
  -10.2353   -6.4814   22.5935 F   0  0  0  0  0  0  0  0  0  0  0  0
  2  3  1  0
  7  8  1  0
  8  9  1  0
  9 10  1  0
  9 16  1  0
 15 18  1  0
 17 18  1  0
  1 19  1  0
 17 20  1  6
  8 23  2  0
 25 27  1  0
 27 28  1  0
 27 29  1  0
 27 30  1  0
 17 16  1  0
  1  2  2  0
  2  4  1  0
  4  5  2  0
  5  7  1  0
  7  6  2  0
  6  1  1  0
 20 21  2  0
 21 24  1  0
 24 26  2  0
 26 25  1  0
 25 22  2  0
 22 20  1  0
 10 11  2  0
 11 12  1  0
 12 13  2  0
 13 14  1  0
 14 15  2  0
 15 10  1  0
M  END
$$$$
