No_3329-complexes_sdf/6BKW-FPZ/2024-09-17-14-21-01/
     RDKit          3D

 16 18  0  0  0  0  0  0  0  0999 V2000
   -7.9040    3.9820   27.1177 C   0  0  0  0  0  0  0  0  0  0  0  0
   -7.8663    4.8694   27.9238 C   0  0  0  0  0  0  0  0  0  0  0  0
   -9.0501    3.8017   26.2617 C   0  0  0  0  0  0  0  0  0  0  0  0
  -10.0189    4.7608   26.3707 C   0  0  0  0  0  0  0  0  0  0  0  0
   -8.6770    5.9780   27.9222 C   0  0  0  0  0  0  0  0  0  0  0  0
   -9.8040    5.8752   27.0958 C   0  0  0  0  0  0  0  0  0  0  0  0
   -9.1425    2.7000   25.4662 N   0  0  0  0  0  0  0  0  0  0  0  0
   -9.9460    2.6875   24.3781 C   0  0  0  0  0  0  0  0  0  0  0  0
   -8.4888    1.5089   25.7690 C   0  0  0  0  0  0  0  0  0  0  0  0
   -9.9898    1.5954   23.5392 C   0  0  0  0  0  0  0  0  0  0  0  0
   -8.5333    0.3933   25.0233 C   0  0  0  0  0  0  0  0  0  0  0  0
   -9.2616    0.4493   23.8613 C   0  0  0  0  0  0  0  0  0  0  0  0
   -7.7519   -0.7789   25.3289 C   0  0  0  0  0  0  0  0  0  0  0  0
   -7.1129   -0.7517   26.5955 C   0  0  0  0  0  0  0  0  0  0  0  0
   -6.9981    0.4469   27.3392 C   0  0  0  0  0  0  0  0  0  0  0  0
   -7.6933    1.4760   27.0179 C   0  0  0  0  0  0  0  0  0  0  0  0
  3  7  1  0
  7  8  1  0
  7  9  1  0
 10 12  1  0
 11 12  1  0
  8 10  1  0
  9 11  2  0
 11 13  1  0
 13 14  2  0
 14 15  1  0
 15 16  2  0
 16  9  1  0
  1  2  2  0
  2  5  1  0
  5  6  2  0
  6  4  1  0
  4  3  2  0
  3  1  1  0
M  END
$$$$
