No_3169-complexes_sdf/6BKW-FPZ/2024-09-17-14-21-01/
     RDKit          3D

 26 30  0  0  0  0  0  0  0  0999 V2000
   -7.9040    3.9820   27.1177 C   0  0  0  0  0  0  0  0  0  0  0  0
   -8.2057    2.8231   26.8733 C   0  0  0  0  0  0  0  0  0  0  0  0
   -8.7695    5.0740   26.7916 C   0  0  0  0  0  0  0  0  0  0  0  0
   -9.9618    4.7598   26.1630 C   0  0  0  0  0  0  0  0  0  0  0  0
   -9.4200    2.4524   26.2849 C   0  0  0  0  0  0  0  0  0  0  0  0
  -10.2590    3.4815   25.9250 C   0  0  0  0  0  0  0  0  0  0  0  0
   -8.3840    6.4693   27.0829 C   0  0  0  0  0  0  0  0  0  0  0  0
   -7.9676    7.4862   26.9931 N   0  0  0  0  0  0  0  0  0  0  0  0
   -7.2799    1.6688   27.3023 C   0  0  1  0  0  0  0  0  0  0  0  0
   -5.9098    2.0868   28.1267 Cl  0  0  0  0  0  0  0  0  0  0  0  0
   -7.7101    0.3144   27.3497 C   0  0  0  0  0  0  0  0  0  0  0  0
   -8.7775   -0.1796   27.3705 C   0  0  0  0  0  0  0  0  0  0  0  0
  -10.0232    0.6285   27.4540 C   0  0  0  0  0  0  0  0  0  0  0  0
  -10.1830    1.2599   26.1824 C   0  0  1  0  0  0  0  0  0  0  0  0
  -11.4990    1.4383   25.6923 C   0  0  1  0  0  0  0  0  0  0  0  0
  -11.5028    2.9724   25.4296 C   0  0  0  0  0  0  0  0  0  0  0  0
   -9.3554    0.5733   24.9743 C   0  0  0  0  0  0  0  0  0  0  0  0
  -10.1660   -0.0102   23.9801 C   0  0  0  0  0  0  0  0  0  0  0  0
  -11.7875    0.7910   24.4447 C   0  0  1  0  0  0  0  0  0  0  0  0
  -12.5726    1.0438   26.6833 C   0  0  1  0  0  0  0  0  0  0  0  0
  -12.7487    0.5595   23.6582 C   0  0  0  0  0  0  0  0  0  0  0  0
  -12.7069    1.1637   27.7216 C   0  0  0  0  0  0  0  0  0  0  0  0
  -13.7720    0.5532   25.8645 C   0  0  0  0  0  0  0  0  0  0  0  0
  -13.8032    0.1571   24.5775 C   0  0  0  0  0  0  0  0  0  0  0  0
  -13.3356    1.5256   28.6620 C   0  0  0  0  0  0  0  0  0  0  0  0
  -13.1475    1.5982   30.0944 C   0  0  0  0  0  0  0  0  0  0  0  0
  3  7  1  0
  7  8  3  0
  2  9  1  0
  9 10  1  1
  9 11  1  0
 11 12  2  0
 12 13  1  0
  5 14  1  0
 14 13  1  1
 14 15  1  0
  6 16  1  0
 15 16  1  6
 14 17  1  0
 17 18  2  0
 15 19  1  0
 18 19  1  0
 15 20  1  0
 19 21  1  1
 20 23  1  0
 23 24  1  0
 22 25  1  0
 25 26  2  0
 20 22  1  6
 21 24  1  0
  1  2  2  0
  2  5  1  0
  5  6  2  0
  6  4  1  0
  4  3  2  0
  3  1  1  0
M  END
$$$$
