No_3690-complexes_sdf/6BKW-FPZ/2024-09-17-14-21-01/
     RDKit          3D

 35 40  0  0  0  0  0  0  0  0999 V2000
   -7.9040    3.9820   27.1177 C   0  0  0  0  0  0  0  0  0  0  0  0
   -9.0711    4.3164   27.0630 C   0  0  0  0  0  0  0  0  0  0  0  0
   -9.9692    3.7224   26.1073 C   0  0  0  0  0  0  0  0  0  0  0  0
   -6.9787    4.6761   28.1003 C   0  0  0  0  0  0  0  0  0  0  0  0
  -11.1978    4.2793   25.7845 C   0  0  0  0  0  0  0  0  0  0  0  0
  -11.8090    4.9684   26.8906 C   0  0  0  0  0  0  0  0  0  0  0  0
  -11.0817    5.3691   27.9928 C   0  0  0  0  0  0  0  0  0  0  0  0
   -9.7201    5.0844   28.1359 C   0  0  0  0  0  0  0  0  0  0  0  0
  -12.0249    3.7940   24.7007 C   0  0  0  0  0  0  0  0  0  0  0  0
  -12.2013    4.1965   23.6884 C   0  0  0  0  0  0  0  0  0  0  0  0
  -13.0026    3.7598   22.5296 C   0  0  0  0  0  0  0  0  0  0  0  0
  -13.5109    2.5260   22.7119 C   0  0  0  0  0  0  0  0  0  0  0  0
  -12.6525    2.4490   24.7609 C   0  0  0  0  0  0  0  0  0  0  0  0
  -13.3571    1.9141   23.8661 C   0  0  0  0  0  0  0  0  0  0  0  0
   -7.4913    5.7547   28.8209 C   0  0  0  0  0  0  0  0  0  0  0  0
   -8.6853    5.9582   28.6789 C   0  0  0  0  0  0  0  0  0  0  0  0
   -9.3972    2.9623   25.1770 O   0  0  0  0  0  0  0  0  0  0  0  0
   -9.6738    1.5885   25.1833 C   0  0  0  0  0  0  0  0  0  0  0  0
   -8.9440    0.8918   26.1554 C   0  0  1  0  0  0  0  0  0  0  0  0
   -9.4986   -0.1268   26.7401 C   0  0  0  0  0  0  0  0  0  0  0  0
   -9.1139   -0.5399   28.0602 C   0  0  0  0  0  0  0  0  0  0  0  0
   -9.8462   -1.5603   28.7072 C   0  0  0  0  0  0  0  0  0  0  0  0
  -11.0030   -2.0521   28.1235 C   0  0  0  0  0  0  0  0  0  0  0  0
  -11.4213   -1.6293   26.9159 C   0  0  0  0  0  0  0  0  0  0  0  0
  -10.7322   -0.6592   26.2872 C   0  0  0  0  0  0  0  0  0  0  0  0
   -7.6153    0.3399   25.4240 C   0  0  1  0  0  0  0  0  0  0  0  0
   -8.2632    1.7306   27.1492 O   0  0  0  0  0  0  0  0  0  0  0  0
   -6.9080    1.4149   27.1944 C   0  0  0  0  0  0  0  0  0  0  0  0
   -6.5223    0.5036   26.3081 C   0  0  0  0  0  0  0  0  0  0  0  0
   -7.6824   -0.4433   24.2869 C   0  0  0  0  0  0  0  0  0  0  0  0
   -6.5637   -0.9831   23.8107 C   0  0  0  0  0  0  0  0  0  0  0  0
   -6.5871   -1.7082   22.5604 C   0  0  0  0  0  0  0  0  0  0  0  0
   -7.5901   -2.2580   22.3160 C   0  0  0  0  0  0  0  0  0  0  0  0
   -8.9001   -1.8658   22.8019 C   0  0  0  0  0  0  0  0  0  0  0  0
   -8.8769   -0.9640   23.8247 C   0  0  0  0  0  0  0  0  0  0  0  0
  5  9  1  0
  3 17  1  0
 17 18  1  0
 19 18  1  6
 19 20  1  0
 19 26  1  0
 19 27  1  0
 27 28  1  0
 26 29  1  0
 28 29  2  0
 26 30  1  1
  1  2  2  0
  8 16  2  0
 16 15  1  0
 15  4  2  0
  4  1  1  0
  2  3  1  0
  3  5  2  0
  5  6  1  0
  6  7  2  0
  7  8  1  0
  8  2  1  0
 30 31  2  0
 31 32  1  0
 32 33  2  0
 33 34  1  0
 34 35  2  0
 35 30  1  0
 20 21  2  0
 21 22  1  0
 22 23  2  0
 23 24  1  0
 24 25  2  0
 25 20  1  0
  9 10  2  0
 10 11  1  0
 11 12  2  0
 12 14  1  0
 14 13  2  0
 13  9  1  0
M  END
$$$$
