No_3276-complexes_sdf/6BKW-FPZ/2024-09-17-14-21-01/
     RDKit          3D

 14 15  0  0  0  0  0  0  0  0999 V2000
   -7.9040    3.9820   27.1177 C   0  0  0  0  0  0  0  0  0  0  0  0
   -7.8663    4.8694   27.9238 C   0  0  0  0  0  0  0  0  0  0  0  0
   -9.0501    3.8017   26.2617 C   0  0  0  0  0  0  0  0  0  0  0  0
   -9.1826    2.7026   25.3575 C   0  0  0  0  0  0  0  0  0  0  0  0
   -8.6241    6.0053   27.5974 C   0  0  0  0  0  0  0  0  0  0  0  0
   -9.6577    6.0523   26.7101 C   0  0  0  0  0  0  0  0  0  0  0  0
   -9.7428    4.9359   25.9518 C   0  0  0  0  0  0  0  0  0  0  0  0
  -10.0705    1.8663   25.7848 C   0  0  0  0  0  0  0  0  0  0  0  0
  -10.1063    0.6771   25.1376 C   0  0  0  0  0  0  0  0  0  0  0  0
  -10.1540   -0.4382   25.8758 C   0  0  0  0  0  0  0  0  0  0  0  0
  -10.7248   -0.4008   27.2368 C   0  0  0  0  0  0  0  0  0  0  0  0
  -10.7093    0.8725   27.8881 C   0  0  0  0  0  0  0  0  0  0  0  0
  -10.9919    2.2093   26.8057 C   0  0  0  0  0  0  0  0  0  0  0  0
   -6.9850    2.5038   27.4743 Cl  0  0  0  0  0  0  0  0  0  0  0  0
  3  4  1  0
  4  8  1  0
  1 14  1  0
  8  9  2  0
  9 10  1  0
 10 11  2  0
 11 12  1  0
 12 13  2  0
 13  8  1  0
  1  2  2  0
  2  5  1  0
  5  6  2  0
  6  7  1  0
  7  3  2  0
  3  1  1  0
M  END
$$$$
