No_3871-complexes_sdf/6BKW-FPZ/2024-09-17-14-21-01/
     RDKit          3D

 23 24  0  0  0  0  0  0  0  0999 V2000
   -7.9040    3.9820   27.1177 C   0  0  0  0  0  0  0  0  0  0  0  0
   -7.8663    4.8694   27.9238 C   0  0  0  0  0  0  0  0  0  0  0  0
   -9.0491    3.8523   26.2542 C   0  0  0  0  0  0  0  0  0  0  0  0
   -8.7661    5.9491   27.9690 C   0  0  0  0  0  0  0  0  0  0  0  0
   -9.9295    4.8502   26.2323 C   0  0  0  0  0  0  0  0  0  0  0  0
   -9.8077    5.9288   27.0933 C   0  0  0  0  0  0  0  0  0  0  0  0
   -9.0726    2.7074   25.3087 C   0  0  0  0  0  0  0  0  0  0  0  0
   -9.9759    2.7847   24.3262 N   0  0  0  0  0  0  0  0  0  0  0  0
  -10.0451    1.8088   23.3737 C   0  0  0  0  0  0  0  0  0  0  0  0
   -9.2501    0.7130   23.4763 C   0  0  0  0  0  0  0  0  0  0  0  0
   -8.2619    1.6030   25.4294 C   0  0  0  0  0  0  0  0  0  0  0  0
   -8.2960    0.6249   24.5046 C   0  0  0  0  0  0  0  0  0  0  0  0
   -9.2951   -0.3200   22.4151 C   0  0  0  0  0  0  0  0  0  0  0  0
  -10.0409   -1.3983   22.7141 C   0  0  0  0  0  0  0  0  0  0  0  0
  -10.6598   -1.7555   23.4173 C   0  0  0  0  0  0  0  0  0  0  0  0
  -11.3254   -2.4038   24.0144 C   0  0  0  0  0  0  0  0  0  0  0  0
  -12.0754   -2.8666   24.9721 C   0  0  0  0  0  0  0  0  0  0  0  0
  -12.7083   -3.2695   25.9219 C   0  0  0  0  0  0  0  0  0  0  0  0
  -12.2118   -3.0561   27.0363 N   0  0  0  0  0  0  0  0  0  0  0  0
  -12.6581   -3.2083   28.1808 C   0  0  0  0  0  0  0  0  0  0  0  0
  -11.8765   -2.8321   29.3926 C   0  0  0  0  0  0  0  0  0  0  0  0
  -10.6252   -2.1746   29.1899 C   0  0  0  0  0  0  0  0  0  0  0  0
  -10.1877   -1.8911   27.8712 C   0  0  0  0  0  0  0  0  0  0  0  0
  3  7  1  0
 10 13  1  0
 13 14  1  0
 14 15  2  3
 15 16  1  0
 16 17  2  3
 17 18  1  0
 18 19  1  0
 19 20  2  3
 20 21  1  0
 21 22  2  3
 22 23  1  0
  7  8  2  0
  8  9  1  0
  9 10  2  0
 10 12  1  0
 12 11  2  0
 11  7  1  0
  1  2  2  0
  2  4  1  0
  4  6  2  0
  6  5  1  0
  5  3  2  0
  3  1  1  0
M  END
$$$$
