No_3708-complexes_sdf/6BKW-FPZ/2024-09-17-14-21-01/
     RDKit          3D

 12 11  0  0  0  0  0  0  0  0999 V2000
   -7.7129    4.2099   27.0854 C   0  0  0  0  0  0  0  0  0  0  0  0
   -7.7814    5.1722   27.8972 C   0  0  0  0  0  0  0  0  0  0  0  0
   -8.8776    3.8408   26.3416 C   0  0  2  0  0  0  0  0  0  0  0  0
   -8.9136    2.6330   25.5655 C   0  0  0  0  0  0  0  0  0  0  0  0
   -8.8380    6.0976   27.6639 C   0  0  1  0  0  0  0  0  0  0  0  0
   -9.9036    4.7449   26.2606 C   0  0  0  0  0  0  0  0  0  0  0  0
   -9.8428    5.9017   26.9322 C   0  0  0  0  0  0  0  0  0  0  0  0
   -8.7511    7.3548   28.3245 F   0  0  0  0  0  0  0  0  0  0  0  0
   -9.2324    7.0603   27.4272 O   0  0  0  0  0  0  0  0  0  0  0  0
  -10.6920    4.8028   27.9421 Cl  0  0  0  0  0  0  0  0  0  0  0  0
   -8.6719    7.8421   26.2477 C   0  0  0  0  0  0  0  0  0  0  0  0
  -10.6531    6.7058   26.4558 O   0  0  0  0  0  0  0  0  0  0  0  0
  1  2  2  3
  1  3  1  0
  3  4  1  6
  2  5  1  0
  3  6  1  0
  6  7  2  3
  5  8  1  1
  5  9  1  0
  7 10  1  0
  9 11  1  0
  7 12  1  0
M  END
$$$$
