No_3965-complexes_sdf/6BKW-FPZ/2024-09-17-14-21-01/
     RDKit          3D

 15 16  0  0  0  0  0  0  0  0999 V2000
   -7.7129    4.2099   27.0854 C   0  0  0  0  0  0  0  0  0  0  0  0
   -7.7814    5.1722   27.8972 C   0  0  0  0  0  0  0  0  0  0  0  0
   -8.8776    3.8408   26.3416 C   0  0  0  0  0  0  0  0  0  0  0  0
   -9.9844    4.6492   26.4743 C   0  0  0  0  0  0  0  0  0  0  0  0
   -8.7830    6.1594   27.8870 C   0  0  0  0  0  0  0  0  0  0  0  0
   -9.9269    5.8191   27.1183 C   0  0  0  0  0  0  0  0  0  0  0  0
   -8.8618    2.6242   25.5633 C   0  0  1  0  0  0  0  0  0  0  0  0
   -8.2294    1.6410   26.0707 O   0  0  0  0  0  0  0  0  0  0  0  0
   -9.5440    2.5126   24.4563 N   0  0  0  0  0  0  0  0  0  0  0  0
  -10.2995    3.5190   23.8926 C   0  0  0  0  0  0  0  0  0  0  0  0
  -10.7219    3.3493   22.5675 C   0  0  1  0  0  0  0  0  0  0  0  0
   -9.7422    1.3538   23.7351 C   0  0  0  0  0  0  0  0  0  0  0  0
  -10.1192    1.2482   22.4556 C   0  0  0  0  0  0  0  0  0  0  0  0
  -10.7035    2.2700   21.8619 C   0  0  0  0  0  0  0  0  0  0  0  0
  -11.4470    4.6271   21.9558 C   0  0  0  0  0  0  0  0  0  0  0  0
  3  7  1  0
  7  8  1  1
  7  9  1  0
  9 10  1  0
  9 12  1  0
 12 13  1  0
 11 14  1  0
 11 15  1  1
 10 11  1  0
 14 13  1  0
  1  2  2  0
  2  5  1  0
  5  6  2  0
  6  4  1  0
  4  3  2  0
  3  1  1  0
M  END
$$$$
