No_3885-complexes_sdf/6BKW-FPZ/2024-09-17-14-21-01/
     RDKit          3D

 40 45  0  0  0  0  0  0  0  0999 V2000
   -7.9040    3.9820   27.1177 C   0  0  0  0  0  0  0  0  0  0  0  0
   -7.8663    4.8694   27.9238 C   0  0  0  0  0  0  0  0  0  0  0  0
   -7.4547    2.7080   27.4594 C   0  0  0  0  0  0  0  0  0  0  0  0
   -6.1474    2.6388   27.8014 C   0  0  0  0  0  0  0  0  0  0  0  0
   -6.4478    5.1007   28.3789 C   0  0  0  0  0  0  0  0  0  0  0  0
   -5.6547    3.9634   28.3883 C   0  0  0  0  0  0  0  0  0  0  0  0
   -9.2406    3.9237   26.3337 C   0  0  0  0  0  0  0  0  0  0  0  0
  -10.2972    3.4091   26.6563 C   0  0  0  0  0  0  0  0  0  0  0  0
  -10.8174    3.7410   27.7794 C   0  0  0  0  0  0  0  0  0  0  0  0
  -12.0870    3.1763   28.3320 C   0  0  0  0  0  0  0  0  0  0  0  0
  -12.5777    2.1133   27.6155 C   0  0  0  0  0  0  0  0  0  0  0  0
  -12.0213    1.7543   26.4069 C   0  0  0  0  0  0  0  0  0  0  0  0
  -10.9194    2.3583   25.9124 C   0  0  0  0  0  0  0  0  0  0  0  0
   -5.3259    1.4901   27.8922 C   0  0  0  0  0  0  0  0  0  0  0  0
   -4.0600    1.5537   28.3434 N   0  0  0  0  0  0  0  0  0  0  0  0
   -5.8429    0.2235   27.5277 C   0  0  0  0  0  0  0  0  0  0  0  0
   -5.0573   -0.8896   27.6389 C   0  0  0  0  0  0  0  0  0  0  0  0
   -5.6191   -2.1324   27.3315 C   0  0  0  0  0  0  0  0  0  0  0  0
   -6.9482   -2.1218   26.8125 C   0  0  0  0  0  0  0  0  0  0  0  0
   -7.7087   -0.9760   26.7347 C   0  0  0  0  0  0  0  0  0  0  0  0
   -9.0580   -0.9509   26.3363 C   0  0  1  0  0  0  0  0  0  0  0  0
   -7.1474    0.1622   27.1486 C   0  0  0  0  0  0  0  0  0  0  0  0
   -9.0499    4.6941   25.0520 C   0  0  0  0  0  0  0  0  0  0  0  0
   -9.4236   -0.9174   24.9949 C   0  0  0  0  0  0  0  0  0  0  0  0
   -8.5863   -0.3670   24.0664 C   0  0  0  0  0  0  0  0  0  0  0  0
   -8.9306   -0.2728   22.6974 C   0  0  0  0  0  0  0  0  0  0  0  0
  -10.1695   -0.7059   22.2529 C   0  0  0  0  0  0  0  0  0  0  0  0
  -11.0234   -1.2696   23.2096 C   0  0  0  0  0  0  0  0  0  0  0  0
  -10.7006   -1.3303   24.5079 C   0  0  0  0  0  0  0  0  0  0  0  0
  -10.0554   -1.1484   27.3728 C   0  0  0  0  0  0  0  0  0  0  0  0
  -10.1341   -0.2965   28.4676 C   0  0  0  0  0  0  0  0  0  0  0  0
  -10.8334   -2.3506   27.3153 C   0  0  0  0  0  0  0  0  0  0  0  0
  -11.8569   -2.5442   28.2757 C   0  0  0  0  0  0  0  0  0  0  0  0
  -11.9483   -1.6129   29.3494 C   0  0  0  0  0  0  0  0  0  0  0  0
  -11.1537   -0.5093   29.3903 N   0  0  0  0  0  0  0  0  0  0  0  0
  -12.9021   -1.7422   30.2907 N   0  0  0  0  0  0  0  0  0  0  0  0
  -13.8838   -2.4807   30.4138 C   0  0  0  0  0  0  0  0  0  0  0  0
  -14.1290   -3.3115   29.4019 C   0  0  0  0  0  0  0  0  0  0  0  0
  -12.9738   -3.4691   28.2659 C   0  0  0  0  0  0  0  0  0  0  0  0
  -13.8260    1.4538   28.0753 C   0  0  0  0  0  0  0  0  0  0  0  0
  1  7  1  0
  7  8  1  0
  4 14  1  0
 14 15  2  0
 14 16  1  0
 21 20  1  6
  7 23  1  0
 21 30  1  0
 11 40  1  0
 21 24  1  0
  1  2  2  0
  2  5  1  0
  5  6  2  0
  6  4  1  0
  4  3  2  0
  3  1  1  0
 34 36  1  0
 36 37  2  0
 37 38  1  0
 38 39  2  0
 39 33  1  0
 24 25  2  0
 25 26  1  0
 26 27  2  0
 27 28  1  0
 28 29  2  0
 29 24  1  0
 30 31  2  0
 31 35  1  0
 35 34  2  0
 34 33  1  0
 33 32  2  0
 32 30  1  0
 16 17  2  0
 17 18  1  0
 18 19  2  0
 19 20  1  0
 20 22  2  0
 22 16  1  0
  8  9  2  0
  9 10  1  0
 10 11  2  0
 11 12  1  0
 12 13  2  0
 13  8  1  0
M  END
$$$$
