No_3703-complexes_sdf/6BKW-FPZ/2024-09-17-14-21-01/
     RDKit          3D

 21 23  0  0  0  0  0  0  0  0999 V2000
   -7.2496    3.8871   27.4508 C   0  0  0  0  0  0  0  0  0  0  0  0
   -7.9379    4.9063   27.8518 C   0  0  0  0  0  0  0  0  0  0  0  0
   -9.3460    4.8223   27.8695 C   0  0  0  0  0  0  0  0  0  0  0  0
   -7.8628    2.6163   27.1065 C   0  0  0  0  0  0  0  0  0  0  0  0
   -9.2787    2.5744   27.1970 C   0  0  0  0  0  0  0  0  0  0  0  0
  -10.0108    3.6770   27.6340 C   0  0  0  0  0  0  0  0  0  0  0  0
  -11.5178    3.7574   27.7698 C   0  0  0  0  0  0  0  0  0  0  0  0
  -11.9381    3.1535   28.8903 C   0  0  0  0  0  0  0  0  0  0  0  0
  -13.3442    3.1231   29.2495 C   0  0  0  0  0  0  0  0  0  0  0  0
  -14.1801    3.8602   28.3760 C   0  0  0  0  0  0  0  0  0  0  0  0
  -13.6692    4.4615   27.2523 C   0  0  0  0  0  0  0  0  0  0  0  0
  -12.3068    4.4874   26.9751 C   0  0  0  0  0  0  0  0  0  0  0  0
   -6.9736    1.5409   26.7936 C   0  0  0  0  0  0  0  0  0  0  0  0
   -6.9528    0.5157   27.5114 N   0  0  0  0  0  0  0  0  0  0  0  0
   -7.7343   -0.3428   27.7103 C   0  0  0  0  0  0  0  0  0  0  0  0
   -7.5140   -1.5204   28.5222 C   0  0  0  0  0  0  0  0  0  0  0  0
   -5.6147    0.2545   28.1793 C   0  0  0  0  0  0  0  0  0  0  0  0
   -5.3123   -0.7989   28.9636 C   0  0  0  0  0  0  0  0  0  0  0  0
   -6.3330   -1.6926   29.1432 C   0  0  0  0  0  0  0  0  0  0  0  0
   -4.5979    1.2489   27.9695 N   0  0  0  0  0  0  0  0  0  0  0  0
   -7.3324    6.0599   28.1373 F   0  0  0  0  0  0  0  0  0  0  0  0
  6  7  1  0
  4 13  1  0
 13 14  1  0
 14 15  1  0
 14 17  1  0
 16 19  1  0
 18 19  1  0
 17 20  1  0
  2 21  1  0
 15 16  1  0
 18 17  1  0
  1  2  2  0
  2  3  1  0
  3  6  2  0
  6  5  1  0
  5  4  2  0
  4  1  1  0
  7  8  2  0
  8  9  1  0
  9 10  2  0
 10 11  1  0
 11 12  2  0
 12  7  1  0
M  END
$$$$
