No_3677-complexes_sdf/6BKW-FPZ/2024-09-17-14-21-01/
     RDKit          3D

 26 28  0  0  0  0  0  0  0  0999 V2000
   -7.2496    3.8871   27.4508 C   0  0  0  0  0  0  0  0  0  0  0  0
   -7.9379    4.9063   27.8518 C   0  0  0  0  0  0  0  0  0  0  0  0
   -7.4895    6.2027   27.7481 C   0  0  0  0  0  0  0  0  0  0  0  0
   -7.8057    2.6324   27.3137 C   0  0  0  0  0  0  0  0  0  0  0  0
   -9.1872    2.4678   27.5434 C   0  0  0  0  0  0  0  0  0  0  0  0
   -9.9237    3.5447   27.9999 C   0  0  0  0  0  0  0  0  0  0  0  0
   -9.3832    4.8080   28.1012 C   0  0  0  0  0  0  0  0  0  0  0  0
  -11.3676    3.2981   28.3203 C   0  0  0  0  0  0  0  0  0  0  0  0
  -11.8148    2.0873   28.7014 C   0  0  0  0  0  0  0  0  0  0  0  0
  -13.1602    1.8639   29.0836 C   0  0  0  0  0  0  0  0  0  0  0  0
  -13.9996    2.9938   29.1572 C   0  0  0  0  0  0  0  0  0  0  0  0
  -13.5757    4.2346   28.7823 C   0  0  0  0  0  0  0  0  0  0  0  0
  -12.2538    4.4513   28.4244 C   0  0  0  0  0  0  0  0  0  0  0  0
   -6.7396    1.3257   26.8064 Cl  0  0  0  0  0  0  0  0  0  0  0  0
   -8.1768    7.2516   27.1392 N   0  0  0  0  0  0  0  0  0  0  0  0
   -8.6761    7.1483   26.0292 C   0  0  0  0  0  0  0  0  0  0  0  0
  -15.3083    2.7718   29.5046 F   0  0  0  0  0  0  0  0  0  0  0  0
  -13.6060    0.5269   29.4786 C   0  0  0  0  0  0  0  0  0  0  0  0
  -12.8945   -0.4849   28.8782 C   0  0  0  0  0  0  0  0  0  0  0  0
  -12.1950   -1.3418   29.7500 C   0  0  0  0  0  0  0  0  0  0  0  0
  -11.4049   -2.4597   29.2126 C   0  0  0  0  0  0  0  0  0  0  0  0
  -11.3210   -2.5412   27.8260 C   0  0  0  0  0  0  0  0  0  0  0  0
  -11.9830   -1.6617   27.0204 C   0  0  0  0  0  0  0  0  0  0  0  0
  -12.7024   -0.6402   27.5467 C   0  0  0  0  0  0  0  0  0  0  0  0
  -10.3223   -3.9607   27.0679 Br  0  0  0  0  0  0  0  0  0  0  0  0
  -14.5846    0.3416   30.2194 O   0  0  0  0  0  0  0  0  0  0  0  0
  2  3  1  0
  6  8  1  0
  4 14  1  0
  3 15  1  0
 15 16  1  0
 11 17  1  0
 10 18  1  0
 18 19  1  0
 22 25  1  0
 18 26  2  0
  1  2  2  0
  2  7  1  0
  7  6  2  0
  6  5  1  0
  5  4  2  0
  4  1  1  0
  8  9  2  0
  9 10  1  0
 10 11  2  0
 11 12  1  0
 12 13  2  0
 13  8  1  0
 19 20  2  0
 20 21  1  0
 21 22  2  0
 22 23  1  0
 23 24  2  0
 24 19  1  0
M  END
$$$$
