No_3866-complexes_sdf/6BKW-FPZ/2024-09-17-14-21-01/
     RDKit          3D

 14 15  0  0  0  0  0  0  0  0999 V2000
   -7.9040    3.9820   27.1177 C   0  0  0  0  0  0  0  0  0  0  0  0
   -8.2057    2.8231   26.8733 C   0  0  0  0  0  0  0  0  0  0  0  0
   -7.4766    1.7477   27.4593 C   0  0  0  0  0  0  0  0  0  0  0  0
   -6.7221    4.3631   27.8544 C   0  0  0  0  0  0  0  0  0  0  0  0
   -7.8124    0.3771   27.2172 C   0  0  0  0  0  0  0  0  0  0  0  0
   -5.8627    3.2946   28.1755 C   0  0  0  0  0  0  0  0  0  0  0  0
   -6.2236    2.0117   28.0119 C   0  0  0  0  0  0  0  0  0  0  0  0
   -7.0955   -0.5968   27.3980 C   0  0  0  0  0  0  0  0  0  0  0  0
   -5.7350   -0.2874   27.8633 C   0  0  0  0  0  0  0  0  0  0  0  0
   -5.3158    0.9525   28.2373 C   0  0  0  0  0  0  0  0  0  0  0  0
   -8.7610    5.1708   26.7014 C   0  0  0  0  0  0  0  0  0  0  0  0
   -9.5776    5.0100   25.6234 N   0  0  0  0  0  0  0  0  0  0  0  0
   -8.9105    6.2292   27.3865 O   0  0  0  0  0  0  0  0  0  0  0  0
   -4.1429    1.1860   28.7093 F   0  0  0  0  0  0  0  0  0  0  0  0
  1 11  1  0
 11 12  1  0
 11 13  2  0
 10 14  1  0
  3  5  2  0
  5  8  1  0
  8  9  2  0
  9 10  1  0
 10  7  2  0
  1  2  2  0
  2  3  1  0
  3  7  1  0
  7  6  1  0
  6  4  2  0
  4  1  1  0
M  END
$$$$
