No_3388-complexes_sdf/6BKW-FPZ/2024-09-17-14-21-01/
     RDKit          3D

 30 34  0  0  0  0  0  0  0  0999 V2000
   -7.9040    3.9820   27.1177 C   0  0  0  0  0  0  0  0  0  0  0  0
   -8.2057    2.8231   26.8733 C   0  0  0  0  0  0  0  0  0  0  0  0
   -7.4766    1.7477   27.4593 C   0  0  0  0  0  0  0  0  0  0  0  0
   -8.7468    5.1251   26.6967 C   0  0  0  0  0  0  0  0  0  0  0  0
   -9.7234    4.8589   25.8202 C   0  0  0  0  0  0  0  0  0  0  0  0
   -9.9711    3.5858   25.4266 C   0  0  0  0  0  0  0  0  0  0  0  0
   -9.2266    2.4957   25.9600 C   0  0  0  0  0  0  0  0  0  0  0  0
   -7.8305    0.3697   27.3235 C   0  0  0  0  0  0  0  0  0  0  0  0
   -7.0984   -0.5913   27.8882 C   0  0  0  0  0  0  0  0  0  0  0  0
   -5.8352   -0.3087   28.4464 C   0  0  0  0  0  0  0  0  0  0  0  0
   -5.3580    1.0300   28.4203 C   0  0  0  0  0  0  0  0  0  0  0  0
   -6.0819    1.9892   27.9122 C   0  0  0  0  0  0  0  0  0  0  0  0
   -8.4137    6.5129   27.1070 C   0  0  0  0  0  0  0  0  0  0  0  0
   -7.3309    6.7930   26.9793 F   0  0  0  0  0  0  0  0  0  0  0  0
   -8.9120    6.6232   28.4727 F   0  0  0  0  0  0  0  0  0  0  0  0
   -9.1949    7.4028   26.4065 F   0  0  0  0  0  0  0  0  0  0  0  0
   -5.0039   -1.3911   29.0404 C   0  0  0  0  0  0  0  0  0  0  0  0
   -5.1977   -2.2670   29.5151 N   0  0  0  0  0  0  0  0  0  0  0  0
   -3.6302   -0.8028   29.3249 C   0  0  0  0  0  0  0  0  0  0  0  0
   -4.3903   -3.1821   30.0778 C   0  0  0  0  0  0  0  0  0  0  0  0
   -3.0890    0.4041   28.8513 C   0  0  0  0  0  0  0  0  0  0  0  0
   -3.9471    1.3472   28.5773 C   0  0  0  0  0  0  0  0  0  0  0  0
   -3.1079   -2.8180   30.2629 C   0  0  0  0  0  0  0  0  0  0  0  0
   -2.6366   -1.7025   29.9364 C   0  0  0  0  0  0  0  0  0  0  0  0
  -11.0395    3.3599   24.4512 C   0  0  0  0  0  0  0  0  0  0  0  0
  -10.7595    2.9210   23.2752 C   0  0  0  0  0  0  0  0  0  0  0  0
  -11.7140    2.7153   22.2354 C   0  0  0  0  0  0  0  0  0  0  0  0
  -12.1260    4.2490   24.4266 C   0  0  0  0  0  0  0  0  0  0  0  0
  -13.1449    4.2029   23.5229 C   0  0  0  0  0  0  0  0  0  0  0  0
  -12.8885    3.5090   22.3554 C   0  0  0  0  0  0  0  0  0  0  0  0
  2  3  1  0
  4 13  1  0
 13 14  1  0
 13 15  1  0
 13 16  1  0
  6 25  1  0
 25 26  2  0
 26 27  1  0
 27 30  2  0
 30 29  1  0
 29 28  2  0
 28 25  1  0
  1  2  2  0
  2  7  1  0
  7  6  2  0
  6  5  1  0
  5  4  2  0
  4  1  1  0
 11 22  1  0
 22 21  2  0
 21 19  1  0
 17 10  1  0
  3  8  2  0
  8  9  1  0
  9 10  2  0
 10 11  1  0
 11 12  2  0
 12  3  1  0
 17 18  2  0
 18 20  1  0
 20 23  2  0
 23 24  1  0
 24 19  2  0
 19 17  1  0
M  END
$$$$
