No_3974-complexes_sdf/6BKW-FPZ/2024-09-17-14-21-01/
     RDKit          3D

 40 45  0  0  0  0  0  0  0  0999 V2000
   -7.7129    4.2099   27.0854 C   0  0  0  0  0  0  0  0  0  0  0  0
   -8.9133    4.4736   27.0998 C   0  0  0  0  0  0  0  0  0  0  0  0
   -9.4643    5.5426   27.7628 C   0  0  0  0  0  0  0  0  0  0  0  0
   -7.2009    2.9448   26.6134 C   0  0  0  0  0  0  0  0  0  0  0  0
   -6.1602    2.3096   27.4083 C   0  0  0  0  0  0  0  0  0  0  0  0
   -5.8295    1.0200   27.2635 C   0  0  0  0  0  0  0  0  0  0  0  0
   -6.7099    0.1636   26.6529 C   0  0  0  0  0  0  0  0  0  0  0  0
   -8.0658    1.9034   26.2204 C   0  0  0  0  0  0  0  0  0  0  0  0
   -9.2849    2.4563   25.6482 C   0  0  0  0  0  0  0  0  0  0  0  0
   -9.7734    3.6103   26.2571 C   0  0  0  0  0  0  0  0  0  0  0  0
   -7.8526    0.6308   26.1100 C   0  0  0  0  0  0  0  0  0  0  0  0
   -4.5809    0.5348   27.9772 C   0  0  2  0  0  0  0  0  0  0  0  0
   -4.1267   -0.2255   28.4424 C   0  0  0  0  0  0  0  0  0  0  0  0
   -2.9190   -0.3665   29.1617 C   0  0  0  0  0  0  0  0  0  0  0  0
   -2.2572   -0.9899   29.8771 C   0  0  0  0  0  0  0  0  0  0  0  0
   -1.0690   -0.6448   30.5468 C   0  0  0  0  0  0  0  0  0  0  0  0
   -3.4411    1.5067   28.4931 N   0  0  0  0  0  0  0  0  0  0  0  0
   -2.4870    0.8602   29.0765 N   0  0  0  0  0  0  0  0  0  0  0  0
   -2.7852   -2.4264   30.1933 C   0  0  0  0  0  0  0  0  0  0  0  0
   -2.0835   -3.2777   30.9986 C   0  0  0  0  0  0  0  0  0  0  0  0
   -0.8870   -2.9482   31.5729 C   0  0  0  0  0  0  0  0  0  0  0  0
   -0.3347   -1.6256   31.3671 C   0  0  0  0  0  0  0  0  0  0  0  0
   -4.8314   -1.5227   28.4747 N   0  0  0  0  0  0  0  0  0  0  0  0
   -4.8127   -2.4629   27.5347 C   0  0  2  0  0  0  0  0  0  0  0  0
   -5.8150   -1.7447   29.5600 C   0  0  0  0  0  0  0  0  0  0  0  0
   -6.1779   -2.9847   29.8559 C   0  0  0  0  0  0  0  0  0  0  0  0
   -5.2444   -3.7313   27.7511 C   0  0  0  0  0  0  0  0  0  0  0  0
   -6.0765   -3.9505   28.8323 C   0  0  0  0  0  0  0  0  0  0  0  0
   -3.9752   -2.2016   26.5839 F   0  0  0  0  0  0  0  0  0  0  0  0
   -2.5893   -4.6618   31.2082 C   0  0  0  0  0  0  0  0  0  0  0  0
   -2.6499   -5.4187   30.2269 O   0  0  0  0  0  0  0  0  0  0  0  0
   -2.6063   -5.1125   32.4406 N   0  0  0  0  0  0  0  0  0  0  0  0
   -2.6412   -4.4064   33.6491 C   0  0  0  0  0  0  0  0  0  0  0  0
   -2.6935   -5.2132   34.7766 C   0  0  0  0  0  0  0  0  0  0  0  0
   -2.8541   -4.6164   35.9962 C   0  0  0  0  0  0  0  0  0  0  0  0
   -2.9013   -3.1700   36.1054 C   0  0  0  0  0  0  0  0  0  0  0  0
   -2.8674   -2.3874   34.9214 C   0  0  0  0  0  0  0  0  0  0  0  0
   -2.7366   -3.0338   33.6762 C   0  0  0  0  0  0  0  0  0  0  0  0
   -2.9267   -0.9127   35.0264 C   0  0  0  0  0  0  0  0  0  0  0  0
   -2.9833   -0.2392   33.9531 O   0  0  0  0  0  0  0  0  0  0  0  0
 12  6  1  1
 12 13  1  0
 13 14  2  0
 14 15  1  0
 12 17  1  0
 14 18  1  0
 17 18  2  0
 13 23  1  0
 23 24  1  0
 23 25  1  0
 26 28  1  0
 27 28  1  0
 24 29  1  1
 20 30  1  0
 30 31  2  0
 30 32  1  0
 32 33  1  0
 37 39  1  0
 39 40  2  0
  3  2  1  0
 24 27  1  0
 26 25  1  0
  4  5  2  0
  5  6  1  0
  6  7  2  0
  7 11  1  0
 11  8  2  0
 33 34  2  0
 34 35  1  0
 35 36  2  0
 36 37  1  0
 37 38  2  0
 38 33  1  0
 15 16  2  0
 16 22  1  0
 22 21  2  0
 21 20  1  0
 20 19  2  0
 19 15  1  0
  1  2  2  0
  2 10  1  0
 10  9  2  0
  9  8  1  0
  8  4  1  0
  4  1  1  0
M  END
$$$$
