No_3927-complexes_sdf/6BKW-FPZ/2024-09-17-14-21-01/
     RDKit          3D

 40 44  0  0  0  0  0  0  0  0999 V2000
   -7.2496    3.8871   27.4508 C   0  0  0  0  0  0  0  0  0  0  0  0
   -7.9379    4.9063   27.8518 C   0  0  0  0  0  0  0  0  0  0  0  0
   -9.3460    4.8223   27.8695 C   0  0  0  0  0  0  0  0  0  0  0  0
   -7.8628    2.6163   27.1065 C   0  0  0  0  0  0  0  0  0  0  0  0
   -9.2787    2.5744   27.1970 C   0  0  0  0  0  0  0  0  0  0  0  0
  -10.0108    3.6770   27.6340 C   0  0  0  0  0  0  0  0  0  0  0  0
  -11.4834    3.5674   27.7432 C   0  0  0  0  0  0  0  0  0  0  0  0
  -12.3295    3.8838   27.2730 C   0  0  0  0  0  0  0  0  0  0  0  0
  -13.7775    3.8550   27.5201 C   0  0  0  0  0  0  0  0  0  0  0  0
  -11.9352    3.0733   29.0832 C   0  0  0  0  0  0  0  0  0  0  0  0
  -13.1571    2.9372   29.5518 C   0  0  0  0  0  0  0  0  0  0  0  0
  -14.1369    3.3983   28.7189 C   0  0  0  0  0  0  0  0  0  0  0  0
   -7.1757    1.5864   26.7794 F   0  0  0  0  0  0  0  0  0  0  0  0
   -7.3263    6.0457   28.1008 F   0  0  0  0  0  0  0  0  0  0  0  0
  -15.6024    3.2892   29.0810 C   0  0  0  0  0  0  0  0  0  0  0  0
  -16.0312    2.8248   30.0444 N   0  0  0  0  0  0  0  0  0  0  0  0
  -16.4480    3.7942   28.2340 O   0  0  0  0  0  0  0  0  0  0  0  0
  -15.2042    2.2777   31.1578 C   0  0  0  0  0  0  0  0  0  0  0  0
  -13.8414    2.2706   30.7987 C   0  0  0  0  0  0  0  0  0  0  0  0
  -15.6084    1.7908   32.2154 O   0  0  0  0  0  0  0  0  0  0  0  0
   -9.9347    1.2845   26.9490 C   0  0  0  0  0  0  0  0  0  0  0  0
   -9.7213    0.7023   25.8367 C   0  0  0  0  0  0  0  0  0  0  0  0
   -9.5087    1.0984   24.7651 C   0  0  0  0  0  0  0  0  0  0  0  0
   -9.2999    0.4248   23.5010 C   0  0  0  0  0  0  0  0  0  0  0  0
   -9.0723   -0.9256   23.5576 C   0  0  0  0  0  0  0  0  0  0  0  0
   -9.1946   -1.4812   24.8248 C   0  0  0  0  0  0  0  0  0  0  0  0
   -9.4755   -0.8194   25.9394 C   0  0  0  0  0  0  0  0  0  0  0  0
   -9.1239    1.1123   22.2794 N   0  0  0  0  0  0  0  0  0  0  0  0
   -9.4734    2.4172   22.2024 C   0  0  0  0  0  0  0  0  0  0  0  0
  -10.2085    3.1132   23.1257 C   0  0  0  0  0  0  0  0  0  0  0  0
  -10.0238    2.5179   24.5771 N   0  0  0  0  0  0  0  0  0  0  0  0
  -10.4958    4.4393   23.1100 C   0  0  0  0  0  0  0  0  0  0  0  0
  -10.5292    4.9619   22.0356 F   0  0  0  0  0  0  0  0  0  0  0  0
   -9.7155    5.2031   24.0287 F   0  0  0  0  0  0  0  0  0  0  0  0
  -11.8381    4.5678   23.7181 F   0  0  0  0  0  0  0  0  0  0  0  0
  -10.4094    0.7000   28.0114 O   0  0  0  0  0  0  0  0  0  0  0  0
   -8.7034   -1.6915   22.4225 C   0  0  0  0  0  0  0  0  0  0  0  0
   -8.1393   -2.6921   22.4696 C   0  0  0  0  0  0  0  0  0  0  0  0
   -7.8202   -3.5280   21.2113 C   0  0  0  0  0  0  0  0  0  0  0  0
   -8.1767   -2.9297   19.9763 C   0  0  0  0  0  0  0  0  0  0  0  0
  6  7  1  0
  4 13  1  0
  2 14  1  0
 12 15  1  0
 15 16  1  0
 15 17  2  0
 16 18  1  0
 11 19  1  0
 18 19  1  0
 18 20  2  0
  5 21  1  0
 21 22  1  0
 30 32  1  0
 32 33  1  0
 32 34  1  0
 32 35  1  0
 21 36  2  0
 25 37  1  0
 37 38  2  3
 38 39  1  0
 39 40  2  0
 24 28  1  0
 28 29  2  0
 29 30  1  0
 30 31  2  0
 31 23  1  0
  1  2  2  0
  2  3  1  0
  3  6  2  0
  6  5  1  0
  5  4  2  0
  4  1  1  0
 22 23  2  0
 23 24  1  0
 24 25  2  0
 25 26  1  0
 26 27  2  0
 27 22  1  0
  7  8  2  0
  8  9  1  0
  9 12  2  0
 12 11  1  0
 11 10  2  0
 10  7  1  0
M  END
$$$$
