No_3691-complexes_sdf/6BKW-FPZ/2024-09-17-14-21-01/
     RDKit          3D

 18 20  0  0  0  0  0  0  0  0999 V2000
   -7.7129    4.2099   27.0854 C   0  0  0  0  0  0  0  0  0  0  0  0
   -7.7814    5.1722   27.8972 C   0  0  0  0  0  0  0  0  0  0  0  0
   -7.3155    2.9699   27.6145 C   0  0  0  0  0  0  0  0  0  0  0  0
   -7.6814    1.8188   26.9581 C   0  0  0  0  0  0  0  0  0  0  0  0
   -8.6377    1.9131   25.9324 C   0  0  0  0  0  0  0  0  0  0  0  0
   -9.0136    0.6482   25.3285 C   0  0  0  0  0  0  0  0  0  0  0  0
   -8.8387    4.1540   26.2151 C   0  0  0  0  0  0  0  0  0  0  0  0
   -9.4342    5.3613   25.8792 C   0  0  0  0  0  0  0  0  0  0  0  0
   -9.1447    3.0205   25.5014 C   0  0  0  0  0  0  0  0  0  0  0  0
   -9.1925    0.5197   24.0727 C   0  0  0  0  0  0  0  0  0  0  0  0
   -9.5758   -0.6908   23.3941 C   0  0  0  0  0  0  0  0  0  0  0  0
   -8.2638    6.5615   27.6146 C   0  0  0  0  0  0  0  0  0  0  0  0
   -9.1921    6.5979   26.5743 C   0  0  0  0  0  0  0  0  0  0  0  0
   -9.7218   -1.8014   24.1630 C   0  0  0  0  0  0  0  0  0  0  0  0
   -9.0862   -0.6288   26.0848 C   0  0  0  0  0  0  0  0  0  0  0  0
   -9.4810   -1.7694   25.4961 C   0  0  0  0  0  0  0  0  0  0  0  0
   -9.6015   -3.2037   26.4083 Cl  0  0  0  0  0  0  0  0  0  0  0  0
  -10.0191    3.0805   24.5677 O   0  0  0  0  0  0  0  0  0  0  0  0
  3  4  1  0
  5  6  1  0
  5  9  1  0
  7  9  1  0
 16 17  1  0
  9 18  2  0
  5  4  1  0
  3  1  1  0
  1  2  2  0
  2 12  1  0
 12 13  2  0
 13  8  1  0
  8  7  2  0
  7  1  1  0
  6 10  2  0
 10 11  1  0
 11 14  2  0
 14 16  1  0
 16 15  2  0
 15  6  1  0
M  END
$$$$
