No_3250-complexes_sdf/6BKW-FPZ/2024-09-17-14-21-01/
     RDKit          3D

 16 18  0  0  0  0  0  0  0  0999 V2000
   -7.9040    3.9820   27.1177 C   0  0  0  0  0  0  0  0  0  0  0  0
   -7.8663    4.8694   27.9238 C   0  0  0  0  0  0  0  0  0  0  0  0
   -9.0501    3.8017   26.2617 C   0  0  0  0  0  0  0  0  0  0  0  0
   -9.1826    2.7026   25.3575 C   0  0  0  0  0  0  0  0  0  0  0  0
   -6.7437    5.1641   28.6994 C   0  0  0  0  0  0  0  0  0  0  0  0
  -10.1820    2.8063   24.4201 C   0  0  0  0  0  0  0  0  0  0  0  0
  -10.3234    1.8529   23.3996 C   0  0  0  0  0  0  0  0  0  0  0  0
   -9.4461    0.7103   23.5130 C   0  0  0  0  0  0  0  0  0  0  0  0
   -8.5181    0.6301   24.5146 C   0  0  0  0  0  0  0  0  0  0  0  0
   -8.3373    1.6313   25.4103 C   0  0  0  0  0  0  0  0  0  0  0  0
   -5.7217    4.2783   28.5117 N   0  0  0  0  0  0  0  0  0  0  0  0
   -5.8306    3.1445   27.7732 C   0  0  0  0  0  0  0  0  0  0  0  0
   -6.9083    3.0149   27.0064 C   0  0  0  0  0  0  0  0  0  0  0  0
   -7.1778    1.6731   26.3152 C   0  0  0  0  0  0  0  0  0  0  0  0
   -4.8080    2.2903   27.8251 N   0  0  0  0  0  0  0  0  0  0  0  0
   -9.9131    4.7963   26.1582 O   0  0  0  0  0  0  0  0  0  0  0  0
  1  3  1  0
  3  4  1  0
 10 14  1  0
 13 14  1  0
 12 15  1  0
  3 16  2  0
  1  2  2  0
  2  5  1  0
  5 11  2  0
 11 12  1  0
 12 13  2  0
 13  1  1  0
  4  6  2  0
  6  7  1  0
  7  8  2  0
  8  9  1  0
  9 10  2  0
 10  4  1  0
M  END
$$$$
