No_3441-complexes_sdf/6BKW-FPZ/2024-09-17-14-21-01/
     RDKit          3D

 36 40  0  0  0  0  0  0  0  0999 V2000
   -7.9040    3.9820   27.1177 C   0  0  0  0  0  0  0  0  0  0  0  0
   -8.2057    2.8231   26.8733 C   0  0  0  0  0  0  0  0  0  0  0  0
   -9.2962    2.4021   26.1155 C   0  0  0  0  0  0  0  0  0  0  0  0
   -6.8682    4.5169   28.0704 C   0  0  0  0  0  0  0  0  0  0  0  0
  -10.0578    3.3688   25.5520 C   0  0  0  0  0  0  0  0  0  0  0  0
   -9.6997    4.7480   25.6981 C   0  0  0  0  0  0  0  0  0  0  0  0
   -8.6783    5.1111   26.5262 C   0  0  0  0  0  0  0  0  0  0  0  0
  -11.1704    3.0676   24.6150 C   0  0  0  0  0  0  0  0  0  0  0  0
  -11.2492    3.6669   23.4645 C   0  0  0  0  0  0  0  0  0  0  0  0
  -11.7391    3.6090   22.5541 C   0  0  0  0  0  0  0  0  0  0  0  0
  -11.5877    4.4416   21.2768 C   0  0  0  0  0  0  0  0  0  0  0  0
  -10.5582    5.3439   21.3678 C   0  0  0  0  0  0  0  0  0  0  0  0
   -9.9013    5.4929   22.5418 C   0  0  0  0  0  0  0  0  0  0  0  0
  -10.1225    4.8001   23.5642 C   0  0  0  0  0  0  0  0  0  0  0  0
   -9.5452    5.1851   24.7272 N   0  0  0  0  0  0  0  0  0  0  0  0
   -6.9664    5.6315   28.6750 N   0  0  0  0  0  0  0  0  0  0  0  0
   -5.6011    3.8024   27.9160 C   0  0  0  0  0  0  0  0  0  0  0  0
   -5.4950    2.6206   27.4586 N   0  0  0  0  0  0  0  0  0  0  0  0
   -4.5860    1.7138   28.1204 C   0  0  0  0  0  0  0  0  0  0  0  0
   -4.4333    0.4569   27.5898 C   0  0  0  0  0  0  0  0  0  0  0  0
   -3.2029    0.1860   27.1524 C   0  0  0  0  0  0  0  0  0  0  0  0
   -2.9766   -1.0047   26.4207 C   0  0  0  0  0  0  0  0  0  0  0  0
   -4.0401   -1.7906   26.0100 C   0  0  0  0  0  0  0  0  0  0  0  0
   -5.3075   -1.4419   26.4344 C   0  0  0  0  0  0  0  0  0  0  0  0
   -5.5275   -0.2729   27.2037 C   0  0  0  0  0  0  0  0  0  0  0  0
   -6.4437   -2.2852   26.0518 C   0  0  1  0  0  0  0  0  0  0  0  0
   -7.1772   -2.8305   26.9824 C   0  0  0  0  0  0  0  0  0  0  0  0
   -8.1415   -2.5250   27.4155 C   0  0  0  0  0  0  0  0  0  0  0  0
   -8.9458   -3.1270   28.5590 C   0  0  0  0  0  0  0  0  0  0  0  0
  -10.1585   -2.6226   29.1059 C   0  0  0  0  0  0  0  0  0  0  0  0
  -10.6603   -1.4156   28.5213 C   0  0  0  0  0  0  0  0  0  0  0  0
  -10.0116   -0.7459   27.5348 C   0  0  0  0  0  0  0  0  0  0  0  0
   -8.8629   -1.1833   27.0633 C   0  0  0  0  0  0  0  0  0  0  0  0
   -6.7933   -2.3765   24.6752 C   0  0  0  0  0  0  0  0  0  0  0  0
   -7.0355   -1.3001   23.7794 C   0  0  0  0  0  0  0  0  0  0  0  0
   -7.2717   -1.4497   22.4220 C   0  0  0  0  0  0  0  0  0  0  0  0
  1  4  1  0
  4 16  2  0
  4 17  1  0
 17 18  1  0
 18 19  1  0
 19 20  1  0
 24 26  1  0
 26 27  1  1
 26 34  1  0
 34 35  2  3
 35 36  1  0
 27 28  1  0
  6 15  1  0
 15 14  2  0
  9  8  2  0
  8  5  1  0
  1  2  2  0
  2  3  1  0
  3  5  2  0
  5  6  1  0
  6  7  2  0
  7  1  1  0
  9 10  1  0
 10 11  2  0
 11 12  1  0
 12 13  2  0
 13 14  1  0
 14  9  1  0
 20 21  2  0
 21 22  1  0
 22 23  2  0
 23 24  1  0
 24 25  2  0
 25 20  1  0
 28 29  2  0
 29 30  1  0
 30 31  2  0
 31 32  1  0
 32 33  2  0
 33 28  1  0
M  END
$$$$
