No_3769-complexes_sdf/6BKW-FPZ/2024-09-17-14-21-01/
     RDKit          3D

 31 33  0  0  0  0  0  0  0  0999 V2000
   -7.7129    4.2099   27.0854 C   0  0  0  0  0  0  0  0  0  0  0  0
   -7.7814    5.1722   27.8972 C   0  0  0  0  0  0  0  0  0  0  0  0
   -8.8998    3.8713   26.3707 C   0  0  0  0  0  0  0  0  0  0  0  0
   -9.9938    4.6774   26.5446 C   0  0  0  0  0  0  0  0  0  0  0  0
   -8.7789    6.1536   27.9256 C   0  0  0  0  0  0  0  0  0  0  0  0
   -9.9428    5.8398   27.2296 C   0  0  0  0  0  0  0  0  0  0  0  0
   -8.9119    2.6447   25.5685 C   0  0  0  0  0  0  0  0  0  0  0  0
   -8.3051    1.4797   26.1124 C   0  0  0  0  0  0  0  0  0  0  0  0
   -8.3280    0.2840   25.4321 C   0  0  0  0  0  0  0  0  0  0  0  0
   -8.9436    0.2972   24.1720 C   0  0  0  0  0  0  0  0  0  0  0  0
   -9.5220    1.4369   23.6213 C   0  0  0  0  0  0  0  0  0  0  0  0
   -9.4876    2.5948   24.3374 C   0  0  0  0  0  0  0  0  0  0  0  0
  -10.2320    1.3897   22.0906 Cl  0  0  0  0  0  0  0  0  0  0  0  0
   -6.6507    5.5837   28.5990 F   0  0  0  0  0  0  0  0  0  0  0  0
   -7.7262   -0.9211   25.9750 C   0  0  0  0  0  0  0  0  0  0  0  0
   -7.2258   -1.7085   25.5082 N   0  0  0  0  0  0  0  0  0  0  0  0
   -7.8810   -0.9959   27.3309 O   0  0  0  0  0  0  0  0  0  0  0  0
   -6.5541   -2.9579   26.0674 C   0  0  2  0  0  0  0  0  0  0  0  0
   -5.4847   -2.7935   26.7513 C   0  0  0  0  0  0  0  0  0  0  0  0
   -4.9504   -3.7768   27.3214 C   0  0  0  0  0  0  0  0  0  0  0  0
   -3.7561   -3.6131   28.2115 C   0  0  0  0  0  0  0  0  0  0  0  0
   -3.1893   -2.3297   28.3895 C   0  0  0  0  0  0  0  0  0  0  0  0
   -3.8261   -1.2110   27.7255 C   0  0  0  0  0  0  0  0  0  0  0  0
   -4.9084   -1.4362   26.9109 C   0  0  0  0  0  0  0  0  0  0  0  0
   -3.1875    0.1333   27.8432 C   0  0  0  0  0  0  0  0  0  0  0  0
   -2.2574    0.3613   28.4094 O   0  0  0  0  0  0  0  0  0  0  0  0
   -3.9801    1.1384   27.3508 O   0  0  0  0  0  0  0  0  0  0  0  0
   -7.1090   -4.1389   25.6407 C   0  0  0  0  0  0  0  0  0  0  0  0
   -7.9545   -4.7701   25.6834 C   0  0  0  0  0  0  0  0  0  0  0  0
   -8.2475   -6.0670   25.1356 C   0  0  0  0  0  0  0  0  0  0  0  0
   -7.1849   -6.6302   24.4983 C   0  0  0  0  0  0  0  0  0  0  0  0
  3  7  1  0
 11 13  1  0
  2 14  1  0
  9 15  1  0
 15 16  1  0
 15 17  2  0
 18 16  1  6
 18 19  1  0
 23 25  1  0
 25 26  2  0
 25 27  1  0
 18 28  1  0
 28 29  2  3
 29 30  1  0
 30 31  2  0
 19 20  2  0
 20 21  1  0
 21 22  2  0
 22 23  1  0
 23 24  2  0
 24 19  1  0
  1  2  2  0
  2  5  1  0
  5  6  2  0
  6  4  1  0
  4  3  2  0
  3  1  1  0
  7  8  2  0
  8  9  1  0
  9 10  2  0
 10 11  1  0
 11 12  2  0
 12  7  1  0
M  END
$$$$
