No_3770-complexes_sdf/6BKW-FPZ/2024-09-17-14-21-01/
     RDKit          3D

 15 16  0  0  0  0  0  0  0  0999 V2000
   -7.9040    3.9820   27.1177 C   0  0  0  0  0  0  0  0  0  0  0  0
   -7.8663    4.8694   27.9238 C   0  0  0  0  0  0  0  0  0  0  0  0
   -7.4547    2.7080   27.4594 C   0  0  0  0  0  0  0  0  0  0  0  0
   -8.0927    6.2909   27.5184 C   0  0  0  0  0  0  0  0  0  0  0  0
   -8.9150    6.5640   26.4331 C   0  0  0  0  0  0  0  0  0  0  0  0
   -7.6563    1.4669   26.7412 C   0  0  0  0  0  0  0  0  0  0  0  0
   -8.6545    4.2283   25.9171 C   0  0  0  0  0  0  0  0  0  0  0  0
   -9.1529    5.4633   25.5735 C   0  0  0  0  0  0  0  0  0  0  0  0
   -7.0756    0.3256   27.1070 C   0  0  0  0  0  0  0  0  0  0  0  0
   -5.9583    0.3693   27.9686 C   0  0  0  0  0  0  0  0  0  0  0  0
   -5.4768    1.6327   28.4324 C   0  0  0  0  0  0  0  0  0  0  0  0
   -6.0784    2.7522   28.0963 C   0  0  0  0  0  0  0  0  0  0  0  0
   -5.2089   -0.8682   28.2948 C   0  0  0  0  0  0  0  0  0  0  0  0
   -3.9642   -1.0239   28.1101 C   0  0  0  0  0  0  0  0  0  0  0  0
   -3.2201   -2.1838   28.5369 C   0  0  0  0  0  0  0  0  0  0  0  0
  1  3  1  0
 10 13  1  0
 13 14  2  3
 14 15  1  0
  1  2  2  0
  2  4  1  0
  4  5  2  0
  5  8  1  0
  8  7  2  0
  7  1  1  0
  3  6  2  0
  6  9  1  0
  9 10  2  0
 10 11  1  0
 11 12  2  0
 12  3  1  0
M  END
$$$$
