No_3428-complexes_sdf/6BKW-FPZ/2024-09-17-14-21-01/
     RDKit          3D

 19 21  0  0  0  0  0  0  0  0999 V2000
   -7.7129    4.2099   27.0854 C   0  0  0  0  0  0  0  0  0  0  0  0
   -8.2112    3.0637   26.9225 C   0  0  0  0  0  0  0  0  0  0  0  0
   -7.5138    1.9223   27.4249 C   0  0  0  0  0  0  0  0  0  0  0  0
   -8.5309    5.4147   26.8151 C   0  0  0  0  0  0  0  0  0  0  0  0
   -9.6817    5.2393   26.1100 C   0  0  0  0  0  0  0  0  0  0  0  0
  -10.1032    3.9957   25.8534 C   0  0  0  0  0  0  0  0  0  0  0  0
   -9.4034    2.8430   26.2573 C   0  0  0  0  0  0  0  0  0  0  0  0
   -6.8643    1.0176   26.6720 C   0  0  0  0  0  0  0  0  0  0  0  0
   -6.0028    0.0950   27.2696 C   0  0  0  0  0  0  0  0  0  0  0  0
   -5.0332    0.5769   28.1193 C   0  0  0  0  0  0  0  0  0  0  0  0
   -5.2132    1.8902   28.6881 C   0  0  0  0  0  0  0  0  0  0  0  0
   -6.2941    2.6649   28.2115 C   0  0  0  0  0  0  0  0  0  0  0  0
   -6.4357    3.9864   28.2370 N   0  0  0  0  0  0  0  0  0  0  0  0
   -7.9616    6.7654   27.1955 C   0  0  0  0  0  0  0  0  0  0  0  0
   -8.6409    7.8568   26.7454 N   0  0  0  0  0  0  0  0  0  0  0  0
   -6.9234    6.8623   27.8333 O   0  0  0  0  0  0  0  0  0  0  0  0
   -3.9054   -0.2249   28.6033 C   0  0  0  0  0  0  0  0  0  0  0  0
   -3.1579   -0.7014   27.8181 C   0  0  0  0  0  0  0  0  0  0  0  0
   -1.9535   -1.4716   28.2355 C   0  0  0  0  0  0  0  0  0  0  0  0
  2  3  1  0
  1 13  1  0
 12 13  1  0
  4 14  1  0
 14 15  1  0
 14 16  2  0
 10 17  1  0
 17 18  2  3
 18 19  1  0
  3  8  2  0
  8  9  1  0
  9 10  2  0
 10 11  1  0
 11 12  2  0
 12  3  1  0
  1  2  2  0
  2  7  1  0
  7  6  2  0
  6  5  1  0
  5  4  2  0
  4  1  1  0
M  END
$$$$
