No_3051-complexes_sdf/6BKW-FPZ/2024-09-17-14-21-01/
     RDKit          3D

 29 31  0  0  0  0  0  0  0  0999 V2000
   -7.7129    4.2099   27.0854 C   0  0  0  0  0  0  0  0  0  0  0  0
   -8.9133    4.4736   27.0998 C   0  0  0  0  0  0  0  0  0  0  0  0
   -9.7135    3.9633   26.0300 C   0  0  0  0  0  0  0  0  0  0  0  0
   -6.8420    4.9760   28.0851 C   0  0  0  0  0  0  0  0  0  0  0  0
   -9.9322    2.5916   25.9957 C   0  0  0  0  0  0  0  0  0  0  0  0
  -10.5325    2.0352   24.9002 C   0  0  0  0  0  0  0  0  0  0  0  0
   -7.2172    5.7594   28.7158 N   0  0  0  0  0  0  0  0  0  0  0  0
  -10.9852    2.9064   23.8380 C   0  0  0  0  0  0  0  0  0  0  0  0
  -10.7797    4.2526   23.8806 C   0  0  0  0  0  0  0  0  0  0  0  0
  -10.0932    4.8307   24.9780 C   0  0  0  0  0  0  0  0  0  0  0  0
   -9.3287    5.6343   27.8428 C   0  0  0  0  0  0  0  0  0  0  0  0
  -10.6133    6.0594   27.7288 N   0  0  0  0  0  0  0  0  0  0  0  0
   -8.4817    6.2717   28.7133 C   0  0  0  0  0  0  0  0  0  0  0  0
  -11.6940    2.3288   22.6689 C   0  0  0  0  0  0  0  0  0  0  0  0
  -11.4545    1.4329   22.0148 C   0  0  0  0  0  0  0  0  0  0  0  0
  -12.1631    0.9144   20.8454 C   0  0  0  0  0  0  0  0  0  0  0  0
  -13.2229    1.6840   20.4361 C   0  0  0  0  0  0  0  0  0  0  0  0
  -12.8467    3.1511   22.1175 C   0  0  0  0  0  0  0  0  0  0  0  0
  -13.5413    2.8055   21.1049 C   0  0  0  0  0  0  0  0  0  0  0  0
   -5.5606    4.3471   28.1947 N   0  0  0  0  0  0  0  0  0  0  0  0
   -9.4129    1.6925   27.0040 C   0  0  0  0  0  0  0  0  0  0  0  0
   -9.7650    0.4509   27.2357 C   0  0  0  0  0  0  0  0  0  0  0  0
   -9.3719   -0.4064   26.8386 C   0  0  0  0  0  0  0  0  0  0  0  0
   -8.0732   -0.4614   26.1856 C   0  0  0  0  0  0  0  0  0  0  0  0
   -7.8371   -1.0456   25.0369 C   0  0  0  0  0  0  0  0  0  0  0  0
   -6.5691   -0.8777   24.3814 C   0  0  0  0  0  0  0  0  0  0  0  0
   -6.5143   -1.0331   23.0098 C   0  0  0  0  0  0  0  0  0  0  0  0
   -7.6856   -1.3113   22.2318 C   0  0  0  0  0  0  0  0  0  0  0  0
   -8.8996   -1.4131   22.8845 C   0  0  0  0  0  0  0  0  0  0  0  0
  2  3  1  0
 11 12  1  0
  8 14  1  0
  4 20  1  0
  5 21  1  0
 21 22  2  3
 22 23  1  0
 23 24  1  0
 24 25  2  3
 25 26  1  0
 26 27  2  3
 27 28  1  0
 28 29  2  0
  3  5  2  0
  5  6  1  0
  6  8  2  0
  8  9  1  0
  9 10  2  0
 10  3  1  0
 14 15  2  0
 15 16  1  0
 16 17  2  0
 17 19  1  0
 19 18  2  0
 18 14  1  0
  1  2  2  0
  2 11  1  0
 11 13  2  0
 13  7  1  0
  7  4  2  0
  4  1  1  0
M  END
$$$$
