No_3549-complexes_sdf/6BKW-FPZ/2024-09-17-14-21-01/
     RDKit          3D

 26 29  0  0  0  0  0  0  0  0999 V2000
   -7.9040    3.9820   27.1177 C   0  0  0  0  0  0  0  0  0  0  0  0
   -9.0711    4.3164   27.0630 C   0  0  0  0  0  0  0  0  0  0  0  0
  -10.0395    3.8218   27.1938 C   0  0  0  0  0  0  0  0  0  0  0  0
   -7.6424    2.5858   27.3610 C   0  0  0  0  0  0  0  0  0  0  0  0
   -8.7741    1.7889   27.4566 C   0  0  0  0  0  0  0  0  0  0  0  0
  -10.0155    2.3581   27.4300 C   0  0  0  0  0  0  0  0  0  0  0  0
  -11.2141    1.4842   27.6314 C   0  0  0  0  0  0  0  0  0  0  0  0
  -11.9763    1.0748   26.6406 C   0  0  0  0  0  0  0  0  0  0  0  0
  -11.9276    1.1743   25.5581 C   0  0  0  0  0  0  0  0  0  0  0  0
  -12.8327    0.5864   24.5388 C   0  0  0  0  0  0  0  0  0  0  0  0
  -13.8507   -0.1694   25.0330 C   0  0  0  0  0  0  0  0  0  0  0  0
  -13.9660   -0.3620   26.3659 C   0  0  0  0  0  0  0  0  0  0  0  0
  -13.0988    0.1834   27.3344 C   0  0  0  0  0  0  0  0  0  0  0  0
   -9.2907    5.9524   26.9493 C   0  0  0  0  0  0  0  0  0  0  0  0
  -11.3997    1.3095   28.9868 O   0  0  0  0  0  0  0  0  0  0  0  0
   -8.5145    6.6935   25.9623 C   0  0  0  0  0  0  0  0  0  0  0  0
   -6.2815    2.0130   27.3849 C   0  0  0  0  0  0  0  0  0  0  0  0
   -6.0398    0.7381   27.1620 N   0  0  0  0  0  0  0  0  0  0  0  0
   -6.7408   -0.1018   26.7060 C   0  0  0  0  0  0  0  0  0  0  0  0
   -5.3593    2.8425   27.8355 O   0  0  0  0  0  0  0  0  0  0  0  0
   -6.1565   -1.2211   26.1270 C   0  0  0  0  0  0  0  0  0  0  0  0
   -6.6984   -1.8949   25.1319 C   0  0  0  0  0  0  0  0  0  0  0  0
   -8.0888   -1.7139   24.8373 C   0  0  0  0  0  0  0  0  0  0  0  0
   -8.7846   -0.6998   25.5925 C   0  0  0  0  0  0  0  0  0  0  0  0
   -8.1052    0.0596   26.3996 C   0  0  0  0  0  0  0  0  0  0  0  0
   -8.6433    1.1116   27.0355 N   0  0  0  0  0  0  0  0  0  0  0  0
  6  7  1  0
  7  8  1  0
  2 14  1  0
  7 15  2  0
 14 16  1  0
  4 17  1  0
 17 18  1  0
 18 19  1  0
 17 20  2  0
  5 26  1  0
 25 26  1  0
  1  2  2  0
  2  3  1  0
  3  6  2  0
  6  5  1  0
  5  4  2  0
  4  1  1  0
 19 21  2  0
 21 22  1  0
 22 23  2  0
 23 24  1  0
 24 25  2  0
 25 19  1  0
  8  9  2  0
  9 10  1  0
 10 11  2  0
 11 12  1  0
 12 13  2  0
 13  8  1  0
M  END
$$$$
