No_385-complexes_sdf/6BKW-FPZ/2024-09-17-14-21-01/
     RDKit          3D

 18 20  0  0  0  0  0  0  0  0999 V2000
   -7.9040    3.9820   27.1177 C   0  0  0  0  0  0  0  0  0  0  0  0
   -8.2057    2.8231   26.8733 C   0  0  0  0  0  0  0  0  0  0  0  0
   -9.3234    2.2125   27.0599 C   0  0  0  0  0  0  0  0  0  0  0  0
   -9.0146    4.9428   27.2420 C   0  0  0  0  0  0  0  0  0  0  0  0
   -8.7904    6.3552   27.4306 C   0  0  0  0  0  0  0  0  0  0  0  0
  -10.4674    3.0192   27.2879 C   0  0  0  0  0  0  0  0  0  0  0  0
  -10.3212    4.3963   27.4586 C   0  0  0  0  0  0  0  0  0  0  0  0
   -7.4413    6.8318   27.2485 C   0  0  0  0  0  0  0  0  0  0  0  0
   -9.5769    0.4972   26.9014 Cl  0  0  0  0  0  0  0  0  0  0  0  0
  -11.8109    2.3857   27.5773 C   0  0  0  0  0  0  0  0  0  0  0  0
  -12.2977    2.1058   28.6699 C   0  0  0  0  0  0  0  0  0  0  0  0
  -13.5340    1.5240   28.9704 C   0  0  0  0  0  0  0  0  0  0  0  0
  -14.2980    1.2765   27.8598 C   0  0  0  0  0  0  0  0  0  0  0  0
  -12.6181    2.0224   26.4969 C   0  0  0  0  0  0  0  0  0  0  0  0
  -13.8515    1.5201   26.6455 C   0  0  0  0  0  0  0  0  0  0  0  0
   -6.5855    6.1257   27.6046 N   0  0  0  0  0  0  0  0  0  0  0  0
   -6.6261    4.6470   27.2731 N   0  0  0  0  0  0  0  0  0  0  0  0
   -7.2238    8.1484   27.1274 N   0  0  0  0  0  0  0  0  0  0  0  0
  3  9  1  0
  6 10  1  0
  8 18  1  0
  1  2  2  0
  2  3  1  0
  3  6  2  0
  6  7  1  0
  7  4  2  0
  1  4  1  0
  4  5  1  0
  5  8  2  0
  8 16  1  0
 16 17  2  0
 17  1  1  0
 10 11  2  0
 11 12  1  0
 12 13  2  0
 13 15  1  0
 15 14  2  0
 14 10  1  0
M  END
$$$$
