No_3583-complexes_sdf/6BKW-FPZ/2024-09-17-14-21-01/
     RDKit          3D

 23 25  0  0  0  0  0  0  0  0999 V2000
   -7.9040    3.9820   27.1177 C   0  0  0  0  0  0  0  0  0  0  0  0
   -9.0711    4.3164   27.0630 C   0  0  0  0  0  0  0  0  0  0  0  0
   -9.5294    5.4517   27.7215 C   0  0  0  0  0  0  0  0  0  0  0  0
   -7.4336    2.7132   26.5681 C   0  0  0  0  0  0  0  0  0  0  0  0
   -8.3353    1.8569   26.0442 C   0  0  0  0  0  0  0  0  0  0  0  0
   -9.6477    2.2853   25.9146 C   0  0  0  0  0  0  0  0  0  0  0  0
  -10.0346    3.4497   26.4483 C   0  0  0  0  0  0  0  0  0  0  0  0
   -7.8750    0.5509   25.5918 C   0  0  0  0  0  0  0  0  0  0  0  0
   -7.0002   -0.0835   26.2676 N   0  0  0  0  0  0  0  0  0  0  0  0
   -7.2466   -1.0783   27.0245 C   0  0  2  0  0  0  0  0  0  0  0  0
   -6.2570   -1.5842   27.9808 C   0  0  0  0  0  0  0  0  0  0  0  0
   -5.1016   -0.8179   28.0777 C   0  0  0  0  0  0  0  0  0  0  0  0
   -4.8485    0.3045   27.2909 C   0  0  1  0  0  0  0  0  0  0  0  0
   -5.7748    0.6791   26.4987 C   0  0  0  0  0  0  0  0  0  0  0  0
   -3.5699    1.0008   27.5169 C   0  0  0  0  0  0  0  0  0  0  0  0
   -3.3317    1.9232   26.7966 O   0  0  0  0  0  0  0  0  0  0  0  0
   -2.5968    0.3839   28.2322 O   0  0  0  0  0  0  0  0  0  0  0  0
   -8.4560   -1.8468   26.8802 C   0  0  0  0  0  0  0  0  0  0  0  0
   -8.9932   -2.3772   25.9359 C   0  0  0  0  0  0  0  0  0  0  0  0
  -10.2714   -2.8693   25.8994 C   0  0  0  0  0  0  0  0  0  0  0  0
   -9.3730   -1.7209   28.0992 C   0  0  0  0  0  0  0  0  0  0  0  0
  -10.6083   -2.1715   28.2613 C   0  0  0  0  0  0  0  0  0  0  0  0
  -11.0755   -2.7938   27.0672 C   0  0  0  0  0  0  0  0  0  0  0  0
  1  2  1  0
  2  3  2  0
  1  4  1  0
  4  5  1  0
  5  6  1  0
  2  7  1  0
  6  7  1  0
  5  8  1  0
  8  9  1  0
  9 10  1  0
 11 12  1  0
  9 14  1  0
 13 14  1  0
 13 15  1  1
 15 16  2  0
 15 17  1  0
 10 18  1  6
 10 11  1  0
 12 13  1  0
 18 19  2  0
 19 20  1  0
 20 23  2  0
 23 22  1  0
 22 21  2  0
 21 18  1  0
M  END
$$$$
