No_3031-complexes_sdf/6BKW-FPZ/2024-09-17-14-21-01/
     RDKit          3D

 18 20  0  0  0  0  0  0  0  0999 V2000
   -7.7129    4.2099   27.0854 C   0  0  0  0  0  0  0  0  0  0  0  0
   -8.9133    4.4736   27.0998 C   0  0  0  0  0  0  0  0  0  0  0  0
   -9.4643    5.5426   27.7628 C   0  0  0  0  0  0  0  0  0  0  0  0
   -9.8091    3.6358   26.2841 C   0  0  0  0  0  0  0  0  0  0  0  0
  -10.3717    2.5594   26.9241 C   0  0  0  0  0  0  0  0  0  0  0  0
  -10.9894    1.7053   26.4703 C   0  0  0  0  0  0  0  0  0  0  0  0
   -6.8295    4.9035   28.0852 C   0  0  0  0  0  0  0  0  0  0  0  0
   -8.6339    6.4084   28.5159 C   0  0  0  0  0  0  0  0  0  0  0  0
   -7.2980    5.9760   28.6216 C   0  0  0  0  0  0  0  0  0  0  0  0
  -10.1244    3.9085   24.9701 C   0  0  0  0  0  0  0  0  0  0  0  0
  -10.8903    2.9602   24.2991 C   0  0  0  0  0  0  0  0  0  0  0  0
  -11.3998    1.8608   25.0133 C   0  0  0  0  0  0  0  0  0  0  0  0
  -11.2054    3.2029   22.9075 C   0  0  0  0  0  0  0  0  0  0  0  0
  -10.4575    2.5936   21.9793 C   0  0  0  0  0  0  0  0  0  0  0  0
  -10.4676    2.9422   20.6325 C   0  0  0  0  0  0  0  0  0  0  0  0
  -11.3829    3.9957   20.2234 C   0  0  0  0  0  0  0  0  0  0  0  0
  -11.9554    4.3625   22.5071 C   0  0  0  0  0  0  0  0  0  0  0  0
  -12.0968    4.6924   21.2308 C   0  0  0  0  0  0  0  0  0  0  0  0
  2  4  1  0
 11 13  1  0
  4  5  2  0
  5  6  1  0
  6 12  2  0
 12 11  1  0
 11 10  2  0
 10  4  1  0
  1  2  2  0
  2  3  1  0
  3  8  2  0
  8  9  1  0
  9  7  2  0
  7  1  1  0
 13 14  2  0
 14 15  1  0
 15 16  2  0
 16 18  1  0
 18 17  2  0
 17 13  1  0
M  END
$$$$
