No_3037-complexes_sdf/6BKW-FPZ/2024-09-17-14-21-01/
     RDKit          3D

 29 34  0  0  0  0  0  0  0  0999 V2000
   -7.7129    4.2099   27.0854 C   0  0  0  0  0  0  0  0  0  0  0  0
   -8.9133    4.4736   27.0998 C   0  0  0  0  0  0  0  0  0  0  0  0
   -9.7937    3.7367   26.2091 C   0  0  0  0  0  0  0  0  0  0  0  0
   -6.8266    5.0441   28.0594 C   0  0  0  0  0  0  0  0  0  0  0  0
   -9.2322    2.6276   25.6126 C   0  0  0  0  0  0  0  0  0  0  0  0
   -7.9794    2.1924   25.9863 C   0  0  0  0  0  0  0  0  0  0  0  0
   -7.2411    2.9387   26.9009 C   0  0  0  0  0  0  0  0  0  0  0  0
  -10.0894    1.7793   24.7540 C   0  0  1  0  0  0  0  0  0  0  0  0
  -10.0283    2.1971   23.3715 C   0  0  0  0  0  0  0  0  0  0  0  0
  -10.1318    3.4632   22.9469 C   0  0  0  0  0  0  0  0  0  0  0  0
  -10.2177    3.8938   21.6198 C   0  0  0  0  0  0  0  0  0  0  0  0
  -10.0009    2.9142   20.6503 C   0  0  0  0  0  0  0  0  0  0  0  0
   -9.8567    1.2390   22.3430 C   0  0  0  0  0  0  0  0  0  0  0  0
   -9.8382    1.6229   21.0129 C   0  0  0  0  0  0  0  0  0  0  0  0
   -9.6380    0.3107   24.8332 C   0  0  0  0  0  0  0  0  0  0  0  0
  -11.5929    1.9243   25.1434 C   0  0  0  0  0  0  0  0  0  0  0  0
  -12.2867    1.4123   25.6761 C   0  0  0  0  0  0  0  0  0  0  0  0
  -13.6307    1.7622   26.0320 C   0  0  0  0  0  0  0  0  0  0  0  0
  -13.9334    3.0354   25.5550 C   0  0  0  0  0  0  0  0  0  0  0  0
  -13.1652    3.8677   24.8723 C   0  0  0  0  0  0  0  0  0  0  0  0
  -11.8933    3.3912   24.7079 C   0  0  0  0  0  0  0  0  0  0  0  0
  -11.1203    4.0672   23.7657 N   0  0  0  0  0  0  0  0  0  0  0  0
   -9.9552   -0.6727   24.2441 C   0  0  0  0  0  0  0  0  0  0  0  0
   -9.7210   -1.9856   24.5156 C   0  0  0  0  0  0  0  0  0  0  0  0
   -9.6569   -0.1848   22.7206 C   0  0  0  0  0  0  0  0  0  0  0  0
   -9.6890   -2.2673   25.8220 C   0  0  0  0  0  0  0  0  0  0  0  0
   -9.4188   -1.2606   26.8271 C   0  0  0  0  0  0  0  0  0  0  0  0
   -9.4137    0.0030   26.4270 C   0  0  0  0  0  0  0  0  0  0  0  0
   -9.5377   -1.0799   21.8202 O   0  0  0  0  0  0  0  0  0  0  0  0
  1  4  1  0
  8  5  1  1
  8  9  1  0
  8 15  1  0
  8 16  1  0
 10 22  1  0
 21 22  1  0
 13 25  1  0
 23 25  1  0
 25 29  2  0
  1  2  2  0
  2  3  1  0
  3  5  2  0
  5  6  1  0
  6  7  2  0
  7  1  1  0
  9 13  1  0
 13 14  2  0
 14 12  1  0
 12 11  2  0
 11 10  1  0
 10  9  2  0
 15 28  2  0
 28 27  1  0
 27 26  2  0
 26 24  1  0
 24 23  2  0
 23 15  1  0
 16 17  2  0
 17 18  1  0
 18 19  2  0
 19 20  1  0
 20 21  2  0
 21 16  1  0
M  END
$$$$
