No_312-complexes_sdf/6BKW-FPZ/2024-09-17-14-21-01/
     RDKit          3D

 30 32  0  0  0  0  0  0  0  0999 V2000
   -7.9040    3.9820   27.1177 C   0  0  0  0  0  0  0  0  0  0  0  0
   -9.0711    4.3164   27.0630 C   0  0  0  0  0  0  0  0  0  0  0  0
   -9.8698    3.9665   25.9494 C   0  0  0  0  0  0  0  0  0  0  0  0
   -7.4046    2.7946   26.4568 C   0  0  0  0  0  0  0  0  0  0  0  0
   -8.3659    2.1310   25.6816 C   0  0  0  0  0  0  0  0  0  0  0  0
   -9.5390    2.7825   25.4030 C   0  0  0  0  0  0  0  0  0  0  0  0
   -7.0213    4.5077   28.0334 F   0  0  0  0  0  0  0  0  0  0  0  0
  -10.3619    1.9940   24.4265 C   0  0  0  0  0  0  0  0  0  0  0  0
  -10.8769    2.5946   23.3588 C   0  0  0  0  0  0  0  0  0  0  0  0
  -11.6616    1.9043   22.3677 C   0  0  0  0  0  0  0  0  0  0  0  0
  -11.8186    0.5141   22.5724 C   0  0  0  0  0  0  0  0  0  0  0  0
  -10.5747    0.6160   24.4065 C   0  0  0  0  0  0  0  0  0  0  0  0
  -11.2455   -0.0774   23.5699 C   0  0  0  0  0  0  0  0  0  0  0  0
   -9.2840    5.9628   27.7948 Cl  0  0  0  0  0  0  0  0  0  0  0  0
  -11.4429   -1.5571   23.6741 C   0  0  0  0  0  0  0  0  0  0  0  0
  -11.9945   -2.2568   22.9587 C   0  0  0  0  0  0  0  0  0  0  0  0
  -12.1811   -3.6340   23.1262 C   0  0  0  0  0  0  0  0  0  0  0  0
  -11.7505   -4.0991   24.0194 C   0  0  0  0  0  0  0  0  0  0  0  0
  -10.9160   -2.3628   24.8745 C   0  0  0  0  0  0  0  0  0  0  0  0
  -11.0480   -3.5303   25.0883 C   0  0  0  0  0  0  0  0  0  0  0  0
  -10.5267   -4.2119   26.2769 C   0  0  0  0  0  0  0  0  0  0  0  0
  -10.0774   -3.5805   27.1944 O   0  0  0  0  0  0  0  0  0  0  0  0
  -10.5512   -5.4709   26.3544 O   0  0  0  0  0  0  0  0  0  0  0  0
   -9.5740   -3.7194   28.2597 C   0  0  0  0  0  0  0  0  0  0  0  0
   -9.2978   -2.6860   29.0947 C   0  0  0  0  0  0  0  0  0  0  0  0
   -9.0321   -1.4693   28.7919 C   0  0  0  0  0  0  0  0  0  0  0  0
   -8.0629   -0.7079   28.3963 C   0  0  0  0  0  0  0  0  0  0  0  0
   -6.7196   -1.2318   28.3263 C   0  0  0  0  0  0  0  0  0  0  0  0
   -6.3479   -2.3078   28.9067 C   0  0  0  0  0  0  0  0  0  0  0  0
   -5.1240   -2.8322   28.7161 C   0  0  0  0  0  0  0  0  0  0  0  0
  1  7  1  0
  6  8  1  0
  2 14  1  0
 13 15  1  0
 20 21  1  0
 21 22  1  0
 21 23  2  0
 22 24  1  0
 24 25  2  3
 25 26  1  0
 26 27  1  0
 27 28  2  3
 28 29  1  0
 29 30  2  0
 15 16  2  0
 16 17  1  0
 17 18  2  0
 18 20  1  0
 20 19  2  0
 19 15  1  0
  1  2  2  0
  2  3  1  0
  3  6  2  0
  6  5  1  0
  5  4  2  0
  4  1  1  0
  8  9  2  0
  9 10  1  0
 10 11  2  0
 11 13  1  0
 13 12  2  0
 12  8  1  0
M  END
$$$$
