No_3178-complexes_sdf/6BKW-FPZ/2024-09-17-14-21-01/
     RDKit          3D

 25 28  0  0  0  0  0  0  0  0999 V2000
   -7.2496    3.8871   27.4508 C   0  0  0  0  0  0  0  0  0  0  0  0
   -7.9379    4.9063   27.8518 C   0  0  0  0  0  0  0  0  0  0  0  0
   -9.3460    4.8223   27.8695 C   0  0  0  0  0  0  0  0  0  0  0  0
   -7.8628    2.6163   27.1065 C   0  0  0  0  0  0  0  0  0  0  0  0
   -9.2787    2.5744   27.1970 C   0  0  0  0  0  0  0  0  0  0  0  0
  -10.1378    6.0283   28.2612 C   0  0  0  0  0  0  0  0  0  0  0  0
  -10.0675    3.6884   27.5651 C   0  0  0  0  0  0  0  0  0  0  0  0
   -7.0873    1.4838   26.8231 C   0  0  0  0  0  0  0  0  0  0  0  0
   -6.0164    1.1120   27.7703 C   0  0  0  0  0  0  0  0  0  0  0  0
   -5.3095   -0.0739   27.6709 C   0  0  0  0  0  0  0  0  0  0  0  0
   -5.7724   -0.9616   26.7317 C   0  0  0  0  0  0  0  0  0  0  0  0
   -7.4967    0.4069   26.0864 C   0  0  0  0  0  0  0  0  0  0  0  0
   -6.8646   -0.7453   25.9618 C   0  0  0  0  0  0  0  0  0  0  0  0
   -4.1303   -0.2775   28.5388 C   0  0  0  0  0  0  0  0  0  0  0  0
   -4.0550    0.1890   29.7002 C   0  0  0  0  0  0  0  0  0  0  0  0
   -3.0651   -1.0499   28.0139 C   0  0  0  0  0  0  0  0  0  0  0  0
   -3.1681   -0.2798   30.7733 C   0  0  0  0  0  0  0  0  0  0  0  0
   -2.1045   -1.0772   30.2691 C   0  0  0  0  0  0  0  0  0  0  0  0
   -2.0624   -1.4608   28.9191 C   0  0  0  0  0  0  0  0  0  0  0  0
  -11.4753    3.4672   27.7417 C   0  0  0  0  0  0  0  0  0  0  0  0
  -12.2885    3.5871   26.6876 C   0  0  0  0  0  0  0  0  0  0  0  0
  -13.7023    3.5808   26.7742 C   0  0  0  0  0  0  0  0  0  0  0  0
  -14.2946    3.6538   28.0383 C   0  0  0  0  0  0  0  0  0  0  0  0
  -13.4750    3.6106   29.1965 C   0  0  0  0  0  0  0  0  0  0  0  0
  -12.0710    3.5780   29.1249 C   0  0  0  0  0  0  0  0  0  0  0  0
  3  6  1  0
  4  8  1  0
 10 14  1  0
  7 20  1  0
 14 15  2  0
 15 17  1  0
 17 18  2  0
 18 19  1  0
 19 16  2  0
 16 14  1  0
  1  2  2  0
  2  3  1  0
  3  7  2  0
  7  5  1  0
  5  4  2  0
  4  1  1  0
 20 21  2  0
 21 22  1  0
 22 23  2  0
 23 24  1  0
 24 25  2  0
 25 20  1  0
  8  9  2  0
  9 10  1  0
 10 11  2  0
 11 13  1  0
 13 12  2  0
 12  8  1  0
M  END
$$$$
