No_3224-complexes_sdf/6BKW-FPZ/2024-09-17-14-21-01/
     RDKit          3D

 28 31  0  0  0  0  0  0  0  0999 V2000
   -7.2496    3.8871   27.4508 C   0  0  0  0  0  0  0  0  0  0  0  0
   -8.5096    4.0291   27.2770 C   0  0  2  0  0  0  0  0  0  0  0  0
   -9.2677    5.1714   27.5773 C   0  0  0  0  0  0  0  0  0  0  0  0
   -9.2765    2.8248   26.8371 C   0  0  0  0  0  0  0  0  0  0  0  0
  -10.4623    3.0171   26.3237 C   0  0  1  0  0  0  0  0  0  0  0  0
  -11.3015    3.9610   26.8543 C   0  0  0  0  0  0  0  0  0  0  0  0
  -10.7070    5.2935   27.2178 C   0  0  0  0  0  0  0  0  0  0  0  0
   -6.5533    4.9227   27.9397 N   0  0  0  0  0  0  0  0  0  0  0  0
   -6.6471    2.6948   27.5819 N   0  0  0  0  0  0  0  0  0  0  0  0
   -5.2232    2.7693   27.8918 C   0  0  0  0  0  0  0  0  0  0  0  0
  -10.8467    2.4302   25.0519 C   0  0  0  0  0  0  0  0  0  0  0  0
  -11.0008    3.1597   23.9244 C   0  0  0  0  0  0  0  0  0  0  0  0
  -11.2445    2.6377   22.6392 C   0  0  0  0  0  0  0  0  0  0  0  0
  -11.1339    1.2734   22.5059 C   0  0  0  0  0  0  0  0  0  0  0  0
  -10.5807    1.0526   24.7921 C   0  0  0  0  0  0  0  0  0  0  0  0
  -10.7648    0.4835   23.5501 C   0  0  0  0  0  0  0  0  0  0  0  0
   -5.0964    4.1168   28.2031 N   0  0  0  0  0  0  0  0  0  0  0  0
  -11.5930    3.4943   21.4919 C   0  0  0  0  0  0  0  0  0  0  0  0
  -11.4272    3.3884   20.4577 C   0  0  0  0  0  0  0  0  0  0  0  0
  -11.7879    4.3466   19.3760 C   0  0  0  0  0  0  0  0  0  0  0  0
  -12.1996    4.7916   21.9351 C   0  0  0  0  0  0  0  0  0  0  0  0
   -4.4400    1.8789   28.0323 N   0  0  0  0  0  0  0  0  0  0  0  0
   -4.6784    0.5503   27.7155 C   0  0  0  0  0  0  0  0  0  0  0  0
   -3.5858   -0.1412   27.3280 C   0  0  0  0  0  0  0  0  0  0  0  0
   -3.8059   -1.1069   26.3594 C   0  0  0  0  0  0  0  0  0  0  0  0
   -5.0968   -1.2571   25.8632 C   0  0  0  0  0  0  0  0  0  0  0  0
   -6.1686   -0.5247   26.2589 C   0  0  0  0  0  0  0  0  0  0  0  0
   -5.8330    0.7264   26.8861 C   0  0  0  0  0  0  0  0  0  0  0  0
  2  1  1  1
  2  3  1  0
  2  4  1  0
  4  5  1  0
  5  6  1  0
  3  7  1  0
  6  7  1  0
  1  8  2  0
  1  9  1  0
  9 10  1  0
  5 11  1  6
  8 17  1  0
 10 17  2  0
 13 18  1  0
 18 19  2  3
 19 20  1  0
 18 21  1  0
 10 22  1  0
 22 23  1  0
 11 12  2  0
 12 13  1  0
 13 14  2  0
 14 16  1  0
 16 15  2  0
 15 11  1  0
 23 24  2  0
 24 25  1  0
 25 26  2  0
 26 27  1  0
 27 28  2  0
 28 23  1  0
M  END
$$$$
