No_3075-complexes_sdf/6BKW-FPZ/2024-09-17-14-21-01/
     RDKit          3D

 18 19  0  0  0  0  0  0  0  0999 V2000
   -7.9040    3.9820   27.1177 C   0  0  0  0  0  0  0  0  0  0  0  0
   -9.0711    4.3164   27.0630 C   0  0  0  0  0  0  0  0  0  0  0  0
   -9.5182    5.5541   27.5777 C   0  0  0  0  0  0  0  0  0  0  0  0
   -7.4468    2.6843   26.6499 C   0  0  0  0  0  0  0  0  0  0  0  0
   -8.3856    1.7878   26.2216 C   0  0  0  0  0  0  0  0  0  0  0  0
   -9.6812    2.2328   26.0889 C   0  0  0  0  0  0  0  0  0  0  0  0
  -10.0147    3.4312   26.5259 C   0  0  0  0  0  0  0  0  0  0  0  0
   -7.9132    0.4733   25.8127 C   0  0  0  0  0  0  0  0  0  0  0  0
   -7.9749    0.1125   24.6898 O   0  0  0  0  0  0  0  0  0  0  0  0
   -7.7147   -0.5696   26.8373 N   0  0  0  0  0  0  0  0  0  0  0  0
   -7.3386   -1.5285   26.9447 C   0  0  0  0  0  0  0  0  0  0  0  0
   -6.2928   -1.7286   27.5292 C   0  0  0  0  0  0  0  0  0  0  0  0
   -5.8659   -0.7531   28.5411 C   0  0  0  0  0  0  0  0  0  0  0  0
   -4.7259   -0.9452   29.4278 C   0  0  0  0  0  0  0  0  0  0  0  0
   -3.9704   -2.0428   29.2213 C   0  0  0  0  0  0  0  0  0  0  0  0
   -4.2894   -2.9657   28.3135 C   0  0  0  0  0  0  0  0  0  0  0  0
   -5.3855   -2.8380   27.5769 C   0  0  0  0  0  0  0  0  0  0  0  0
   -4.3148    0.3755   30.5011 Cl  0  0  0  0  0  0  0  0  0  0  0  0
  2  3  1  0
  5  8  1  0
  8  9  2  0
  8 10  1  0
 10 11  1  0
 14 18  1  0
 11 12  1  0
 12 13  2  0
 13 14  1  0
 14 15  2  0
 15 16  1  0
 16 17  2  0
 17 12  1  0
  1  2  2  0
  2  7  1  0
  7  6  2  0
  6  5  1  0
  5  4  2  0
  4  1  1  0
M  END
$$$$
