No_3036-complexes_sdf/6BKW-FPZ/2024-09-17-14-21-01/
     RDKit          3D

 19 20  0  0  0  0  0  0  0  0999 V2000
   -7.9040    3.9820   27.1177 C   0  0  0  0  0  0  0  0  0  0  0  0
   -7.8663    4.8694   27.9238 C   0  0  0  0  0  0  0  0  0  0  0  0
   -9.0491    3.8523   26.2542 C   0  0  0  0  0  0  0  0  0  0  0  0
   -8.7661    5.9491   27.9690 C   0  0  0  0  0  0  0  0  0  0  0  0
   -9.9295    4.8502   26.2323 C   0  0  0  0  0  0  0  0  0  0  0  0
   -9.8077    5.9288   27.0933 C   0  0  0  0  0  0  0  0  0  0  0  0
   -9.0726    2.7074   25.3087 C   0  0  0  0  0  0  0  0  0  0  0  0
   -8.6026    1.4628   25.7488 C   0  0  0  0  0  0  0  0  0  0  0  0
   -9.7747    2.8675   24.1040 C   0  0  0  0  0  0  0  0  0  0  0  0
   -8.7082    0.4024   24.8766 C   0  0  0  0  0  0  0  0  0  0  0  0
   -9.8729    1.7491   23.2711 C   0  0  0  0  0  0  0  0  0  0  0  0
   -9.3145    0.5407   23.6405 C   0  0  0  0  0  0  0  0  0  0  0  0
   -9.4311   -0.6222   22.6965 C   0  0  2  0  0  0  0  0  0  0  0  0
   -8.1276   -1.4917   22.2214 Cl  0  0  0  0  0  0  0  0  0  0  0  0
  -10.6983   -0.9406   22.1168 C   0  0  0  0  0  0  0  0  0  0  0  0
  -10.7969   -1.5297   21.1481 C   0  0  0  0  0  0  0  0  0  0  0  0
  -12.0937   -1.8881   20.4775 C   0  0  0  0  0  0  0  0  0  0  0  0
  -13.1683   -1.3724   21.1344 C   0  0  0  0  0  0  0  0  0  0  0  0
  -13.0402   -0.6161   22.2439 C   0  0  0  0  0  0  0  0  0  0  0  0
  3  7  1  0
 12 13  1  0
 13 14  1  6
 13 15  1  0
 15 16  2  3
 16 17  1  0
 17 18  2  3
 18 19  1  0
  1  2  2  0
  2  4  1  0
  4  6  2  0
  6  5  1  0
  5  3  2  0
  3  1  1  0
  7  8  2  0
  8 10  1  0
 10 12  2  0
 12 11  1  0
 11  9  2  0
  9  7  1  0
M  END
$$$$
