No_3868-complexes_sdf/6BKW-FPZ/2024-09-17-14-21-01/
     RDKit          3D

 32 35  0  0  0  0  0  0  0  0999 V2000
   -7.7129    4.2099   27.0854 C   0  0  0  0  0  0  0  0  0  0  0  0
   -8.2112    3.0637   26.9225 C   0  0  0  0  0  0  0  0  0  0  0  0
   -9.5629    2.7997   27.0678 C   0  0  0  0  0  0  0  0  0  0  0  0
   -8.5911    5.3704   27.2036 C   0  0  0  0  0  0  0  0  0  0  0  0
   -9.9544    5.1489   27.1401 C   0  0  0  0  0  0  0  0  0  0  0  0
  -10.4577    3.9280   27.0818 C   0  0  0  0  0  0  0  0  0  0  0  0
   -8.0077    6.7251   27.2943 C   0  0  0  0  0  0  0  0  0  0  0  0
  -10.0661    1.3994   26.9567 C   0  0  0  0  0  0  0  0  0  0  0  0
   -9.1571    0.4433   27.1436 C   0  0  0  0  0  0  0  0  0  0  0  0
   -7.7571    0.6925   27.0915 C   0  0  0  0  0  0  0  0  0  0  0  0
   -7.2917    1.9407   27.0347 C   0  0  0  0  0  0  0  0  0  0  0  0
   -7.9625    7.8300   26.7655 N   0  0  0  0  0  0  0  0  0  0  0  0
   -6.9542   -0.5537   27.1497 C   0  0  0  0  0  0  0  0  0  0  0  0
   -7.4586   -1.5296   27.4603 F   0  0  0  0  0  0  0  0  0  0  0  0
   -5.8603   -0.2846   28.0389 F   0  0  0  0  0  0  0  0  0  0  0  0
   -6.2811   -0.6345   25.9355 F   0  0  0  0  0  0  0  0  0  0  0  0
   -7.0063    6.6297   28.3456 O   0  0  0  0  0  0  0  0  0  0  0  0
  -11.9351    3.7566   27.1713 C   0  0  0  0  0  0  0  0  0  0  0  0
  -12.5860    3.2908   28.2421 C   0  0  0  0  0  0  0  0  0  0  0  0
  -13.9635    3.1879   28.3652 C   0  0  0  0  0  0  0  0  0  0  0  0
  -14.7078    3.6125   27.2555 C   0  0  0  0  0  0  0  0  0  0  0  0
  -14.1042    4.1751   26.1533 C   0  0  0  0  0  0  0  0  0  0  0  0
  -12.7145    4.2984   26.0924 C   0  0  0  0  0  0  0  0  0  0  0  0
  -14.6458    2.5915   29.5439 C   0  0  0  0  0  0  0  0  0  0  0  0
  -14.6513    3.1959   30.7346 C   0  0  0  0  0  0  0  0  0  0  0  0
  -14.4689    4.4356   30.9469 C   0  0  0  0  0  0  0  0  0  0  0  0
  -14.4433    5.0358   32.3024 C   0  0  0  0  0  0  0  0  0  0  0  0
  -14.4386    4.1605   33.3818 C   0  0  0  0  0  0  0  0  0  0  0  0
  -14.5613    2.8032   33.1895 C   0  0  0  0  0  0  0  0  0  0  0  0
  -14.5967    2.3009   31.9189 C   0  0  0  0  0  0  0  0  0  0  0  0
  -15.2141    1.3343   29.2779 C   0  0  0  0  0  0  0  0  0  0  0  0
  -16.4738    1.1199   29.1945 C   0  0  0  0  0  0  0  0  0  0  0  0
  4  7  1  0
  7 12  1  0
 10 13  1  0
 13 14  1  0
 13 15  1  0
 13 16  1  0
  7 17  2  0
  6 18  1  0
 20 24  1  0
 24 25  1  0
 24 31  1  0
 31 32  2  0
 18 19  2  0
 19 20  1  0
 20 21  2  0
 21 22  1  0
 22 23  2  0
 23 18  1  0
 25 26  2  0
 26 27  1  0
 27 28  2  0
 28 29  1  0
 29 30  2  0
 30 25  1  0
  1  2  2  0
  3  6  2  0
  6  5  1  0
  5  4  2  0
  4  1  1  0
  2  3  1  0
  3  8  1  0
  8  9  2  0
  9 10  1  0
 10 11  2  0
 11  2  1  0
M  END
$$$$
