No_3103-complexes_sdf/6BKW-FPZ/2024-09-17-14-21-01/
     RDKit          3D

 30 31  0  0  0  0  0  0  0  0999 V2000
   -7.9040    3.9820   27.1177 C   0  0  0  0  0  0  0  0  0  0  0  0
   -7.8663    4.8694   27.9238 C   0  0  1  0  0  0  0  0  0  0  0  0
   -7.4698    2.6989   27.4277 C   0  0  0  0  0  0  0  0  0  0  0  0
   -7.9683    1.5964   26.8266 C   0  0  0  0  0  0  0  0  0  0  0  0
   -8.9447    1.7923   25.8533 C   0  0  0  0  0  0  0  0  0  0  0  0
   -9.4405    2.9988   25.5757 C   0  0  0  0  0  0  0  0  0  0  0  0
   -8.9424    4.1117   26.2388 C   0  0  0  0  0  0  0  0  0  0  0  0
   -7.0149    5.0235   28.9341 N   0  0  0  0  0  0  0  0  0  0  0  0
   -8.6765    6.5102   27.6861 Cl  0  0  0  0  0  0  0  0  0  0  0  0
  -10.4338    2.9452   24.4903 C   0  0  0  0  0  0  0  0  0  0  0  0
  -11.0574    4.0414   24.1115 N   0  0  0  0  0  0  0  0  0  0  0  0
  -11.0187    5.0151   24.7411 C   0  0  0  0  0  0  0  0  0  0  0  0
  -11.2108    4.2482   22.6411 C   0  0  0  0  0  0  0  0  0  0  0  0
  -11.0235    1.9173   24.2064 O   0  0  0  0  0  0  0  0  0  0  0  0
   -7.3605    0.2558   27.0825 C   0  0  0  0  0  0  0  0  0  0  0  0
   -8.0443   -0.4614   27.8765 O   0  0  0  0  0  0  0  0  0  0  0  0
   -6.2704   -0.0939   26.6454 O   0  0  0  0  0  0  0  0  0  0  0  0
  -12.5136    4.4241   22.2091 C   0  0  0  0  0  0  0  0  0  0  0  0
  -13.3202    3.4148   22.4237 C   0  0  0  0  0  0  0  0  0  0  0  0
  -14.6778    3.7260   22.2306 C   0  0  0  0  0  0  0  0  0  0  0  0
  -15.0579    4.9524   21.6163 C   0  0  0  0  0  0  0  0  0  0  0  0
  -14.1147    5.9281   21.4220 C   0  0  0  0  0  0  0  0  0  0  0  0
  -12.7943    5.7549   21.7942 C   0  0  0  0  0  0  0  0  0  0  0  0
   -5.9761   -1.3211   26.1656 C   0  0  0  0  0  0  0  0  0  0  0  0
   -4.6915   -1.5666   26.4926 C   0  0  0  0  0  0  0  0  0  0  0  0
   -4.3301   -1.8366   27.7848 C   0  0  0  0  0  0  0  0  0  0  0  0
   -3.8510   -1.1096   28.5111 C   0  0  0  0  0  0  0  0  0  0  0  0
   -3.5007   -0.2104   29.1039 C   0  0  0  0  0  0  0  0  0  0  0  0
   -3.0202   -0.5407   30.4762 C   0  0  0  0  0  0  0  0  0  0  0  0
   -3.0904    0.5110   31.4675 N   0  0  0  0  0  0  0  0  0  0  0  0
  2  8  1  6
  2  9  1  0
  6 10  1  0
 10 11  1  0
 11 12  1  0
 11 13  1  0
 10 14  2  0
  4 15  1  0
 15 16  2  0
 15 17  1  0
 13 18  1  0
 17 24  1  0
 24 25  1  0
 25 26  1  0
 26 27  2  3
 27 28  1  0
 28 29  2  3
 29 30  1  0
  2  1  1  0
 18 19  2  0
 19 20  1  0
 20 21  2  0
 21 22  1  0
 22 23  2  0
 23 18  1  0
  1  3  2  0
  3  4  1  0
  4  5  2  0
  5  6  1  0
  6  7  2  0
  7  1  1  0
M  END
$$$$
