No_3387-complexes_sdf/6BKW-FPZ/2024-09-17-14-21-01/
     RDKit          3D

 29 32  0  0  0  0  0  0  0  0999 V2000
   -7.9040    3.9820   27.1177 C   0  0  0  0  0  0  0  0  0  0  0  0
   -7.8663    4.8694   27.9238 C   0  0  0  0  0  0  0  0  0  0  0  0
   -7.4547    2.7080   27.4594 C   0  0  0  0  0  0  0  0  0  0  0  0
   -7.9337    1.5946   26.8372 C   0  0  0  0  0  0  0  0  0  0  0  0
   -8.9032    1.7881   25.8510 C   0  0  0  0  0  0  0  0  0  0  0  0
   -9.3787    2.9871   25.5530 C   0  0  0  0  0  0  0  0  0  0  0  0
   -8.9781    4.0300   26.2200 C   0  0  0  0  0  0  0  0  0  0  0  0
   -8.2132    6.2312   27.6173 N   0  0  0  0  0  0  0  0  0  0  0  0
   -9.1014    6.5119   26.6241 C   0  0  0  0  0  0  0  0  0  0  0  0
   -9.5143    5.3947   25.8857 C   0  0  0  0  0  0  0  0  0  0  0  0
   -7.3356    0.2566   27.1267 C   0  0  0  0  0  0  0  0  0  0  0  0
   -6.2407    0.0547   27.6049 O   0  0  0  0  0  0  0  0  0  0  0  0
   -8.0955   -0.8484   26.8557 N   0  0  0  0  0  0  0  0  0  0  0  0
   -7.6820   -2.1762   27.1835 C   0  0  0  0  0  0  0  0  0  0  0  0
   -8.5486   -3.0162   27.0371 C   0  0  0  0  0  0  0  0  0  0  0  0
   -9.6282   -3.0626   27.4088 C   0  0  0  0  0  0  0  0  0  0  0  0
  -10.6726   -4.0225   27.2542 C   0  0  0  0  0  0  0  0  0  0  0  0
  -10.2964   -5.1584   26.5808 C   0  0  0  0  0  0  0  0  0  0  0  0
   -9.0595   -5.2952   26.1392 C   0  0  0  0  0  0  0  0  0  0  0  0
   -8.0945   -4.2773   26.3473 C   0  0  0  0  0  0  0  0  0  0  0  0
   -6.5060   -2.2752   27.5914 O   0  0  0  0  0  0  0  0  0  0  0  0
  -10.4834    3.0892   24.2202 Cl  0  0  0  0  0  0  0  0  0  0  0  0
  -11.2096   -6.1834   26.3983 N   0  0  0  0  0  0  0  0  0  0  0  0
  -12.2740   -6.2682   27.0843 C   0  0  0  0  0  0  0  0  0  0  0  0
  -13.0829   -7.4028   26.9969 C   0  0  0  0  0  0  0  0  0  0  0  0
  -11.0243   -7.1257   25.4063 C   0  0  0  0  0  0  0  0  0  0  0  0
  -11.7992   -8.2038   25.2345 C   0  0  0  0  0  0  0  0  0  0  0  0
  -12.8878   -8.3244   26.0458 C   0  0  0  0  0  0  0  0  0  0  0  0
  -13.9204   -9.6471   25.8572 Cl  0  0  0  0  0  0  0  0  0  0  0  0
  4 11  1  0
 11 12  2  0
 11 13  1  0
 13 14  1  0
 14 15  1  0
 14 21  2  0
  6 22  1  0
 18 23  1  0
 23 24  1  0
 23 26  1  0
 25 28  1  0
 27 28  1  0
 28 29  1  0
 24 25  1  0
 27 26  1  0
 15 16  2  0
 16 17  1  0
 17 18  2  0
 18 19  1  0
 19 20  2  0
 20 15  1  0
  1  2  2  0
  2  8  1  0
  8  9  2  0
  9 10  1  0
 10  7  2  0
  1  3  1  0
  3  4  2  0
  4  5  1  0
  5  6  2  0
  6  7  1  0
  7  1  1  0
M  END
$$$$
