No_3417-complexes_sdf/6BKW-FPZ/2024-09-17-14-21-01/
     RDKit          3D

 20 21  0  0  0  0  0  0  0  0999 V2000
   -7.9040    3.9820   27.1177 C   0  0  0  0  0  0  0  0  0  0  0  0
   -7.8663    4.8694   27.9238 C   0  0  0  0  0  0  0  0  0  0  0  0
   -9.0953    3.1697   27.0532 C   0  0  0  0  0  0  0  0  0  0  0  0
  -10.1313    3.4052   27.8871 C   0  0  0  0  0  0  0  0  0  0  0  0
  -10.1178    4.5885   28.6885 C   0  0  0  0  0  0  0  0  0  0  0  0
   -8.9412    5.2994   28.7548 C   0  0  0  0  0  0  0  0  0  0  0  0
   -8.8716    2.0095   26.1198 C   0  0  1  0  0  0  0  0  0  0  0  0
   -8.1711    0.8521   26.5768 C   0  0  0  0  0  0  0  0  0  0  0  0
   -7.5099    0.8563   27.7097 C   0  0  0  0  0  0  0  0  0  0  0  0
   -6.7684   -0.2693   28.1592 C   0  0  0  0  0  0  0  0  0  0  0  0
   -6.8831   -1.4231   27.4214 C   0  0  0  0  0  0  0  0  0  0  0  0
   -8.2034   -0.3088   25.8187 C   0  0  0  0  0  0  0  0  0  0  0  0
   -7.5745   -1.4583   26.2209 C   0  0  0  0  0  0  0  0  0  0  0  0
   -9.4874    2.1693   24.8659 C   0  0  2  0  0  0  0  0  0  0  0  0
   -9.3583    1.3430   24.0922 F   0  0  0  0  0  0  0  0  0  0  0  0
  -10.0894    3.3853   24.5077 C   0  0  0  0  0  0  0  0  0  0  0  0
  -10.2184    4.5600   25.2693 C   0  0  0  0  0  0  0  0  0  0  0  0
  -11.1862    2.4420   28.0673 C   0  0  0  0  0  0  0  0  0  0  0  0
  -11.1801    1.1786   28.0706 C   0  0  0  0  0  0  0  0  0  0  0  0
  -12.2071    0.2836   28.2874 C   0  0  0  0  0  0  0  0  0  0  0  0
  7  3  1  1
  7  8  1  0
  7 14  1  0
 14 15  1  6
 14 16  1  0
 16 17  1  0
  4 18  1  0
 18 19  2  3
 19 20  1  0
  1  2  2  0
  2  6  1  0
  6  5  2  0
  5  4  1  0
  4  3  2  0
  3  1  1  0
  8  9  2  0
  9 10  1  0
 10 11  2  0
 11 13  1  0
 13 12  2  0
 12  8  1  0
M  END
$$$$
