No_3994-complexes_sdf/6BKW-FPZ/2024-09-17-14-21-01/
     RDKit          3D

 14 15  0  0  0  0  0  0  0  0999 V2000
   -7.9040    3.9820   27.1177 C   0  0  0  0  0  0  0  0  0  0  0  0
   -7.8663    4.8694   27.9238 C   0  0  0  0  0  0  0  0  0  0  0  0
   -9.0501    3.8017   26.2617 C   0  0  0  0  0  0  0  0  0  0  0  0
  -10.0189    4.7608   26.3707 C   0  0  0  0  0  0  0  0  0  0  0  0
   -8.6770    5.9780   27.9222 C   0  0  0  0  0  0  0  0  0  0  0  0
   -9.8040    5.8752   27.0958 C   0  0  0  0  0  0  0  0  0  0  0  0
   -9.1317    2.6414   25.4147 C   0  0  0  0  0  0  0  0  0  0  0  0
  -10.1023    1.8375   25.7202 C   0  0  0  0  0  0  0  0  0  0  0  0
  -10.2064    0.6268   24.8848 C   0  0  0  0  0  0  0  0  0  0  0  0
   -9.3341    0.5268   23.7983 C   0  0  0  0  0  0  0  0  0  0  0  0
   -8.4817    1.4980   23.4468 C   0  0  0  0  0  0  0  0  0  0  0  0
   -8.3234    2.5694   24.2887 C   0  0  0  0  0  0  0  0  0  0  0  0
   -9.4382   -0.4698   22.8971 F   0  0  0  0  0  0  0  0  0  0  0  0
   -6.9843    2.9716   27.1567 F   0  0  0  0  0  0  0  0  0  0  0  0
  3  7  1  0
 10 13  1  0
  1 14  1  0
  1  2  2  0
  2  5  1  0
  5  6  2  0
  6  4  1  0
  4  3  2  0
  3  1  1  0
  7  8  2  0
  8  9  1  0
  9 10  2  0
 10 11  1  0
 11 12  2  0
 12  7  1  0
M  END
$$$$
