No_3000-complexes_sdf/6BKW-FPZ/2024-09-17-14-21-01/
     RDKit          3D

 13 14  0  0  0  0  0  0  0  0999 V2000
   -7.2496    3.8871   27.4508 C   0  0  0  0  0  0  0  0  0  0  0  0
   -7.6161    2.7143   27.1523 C   0  0  0  0  0  0  0  0  0  0  0  0
   -7.1619    1.8631   27.5232 C   0  0  0  0  0  0  0  0  0  0  0  0
   -8.0384    5.0866   27.3232 C   0  0  0  0  0  0  0  0  0  0  0  0
   -9.1223    5.1097   26.4856 C   0  0  0  0  0  0  0  0  0  0  0  0
   -8.9186    2.6660   26.4794 C   0  0  0  0  0  0  0  0  0  0  0  0
   -9.6149    3.8296   26.1383 C   0  0  0  0  0  0  0  0  0  0  0  0
   -5.7249    1.8517   28.0476 C   0  0  0  0  0  0  0  0  0  0  0  0
   -7.4110    0.4324   27.0781 C   0  0  0  0  0  0  0  0  0  0  0  0
   -4.9224    0.6861   28.3446 C   0  0  0  0  0  0  0  0  0  0  0  0
   -5.4567   -0.5463   28.1315 C   0  0  0  0  0  0  0  0  0  0  0  0
   -6.7249   -0.6650   27.5689 C   0  0  0  0  0  0  0  0  0  0  0  0
   -7.5010    6.2871   27.7388 F   0  0  0  0  0  0  0  0  0  0  0  0
  2  3  1  0
  4 13  1  0
  3  8  2  0
  8 10  1  0
 10 11  2  0
 11 12  1  0
 12  9  2  0
  9  3  1  0
  1  2  2  0
  2  6  1  0
  6  7  2  0
  7  5  1  0
  5  4  2  0
  4  1  1  0
M  END
$$$$
