No_339-complexes_sdf/6BKW-FPZ/2024-09-17-14-21-01/
     RDKit          3D

 21 23  0  0  0  0  0  0  0  0999 V2000
   -7.2496    3.8871   27.4508 C   0  0  0  0  0  0  0  0  0  0  0  0
   -7.6161    2.7143   27.1523 C   0  0  0  0  0  0  0  0  0  0  0  0
   -7.1619    1.8631   27.5232 C   0  0  0  0  0  0  0  0  0  0  0  0
   -6.0841    4.1113   28.0941 C   0  0  0  0  0  0  0  0  0  0  0  0
   -5.7811    1.7390   27.9655 C   0  0  0  0  0  0  0  0  0  0  0  0
   -5.3530    3.0492   28.2995 N   0  0  0  0  0  0  0  0  0  0  0  0
   -7.9862    5.2660   27.2776 C   0  0  0  0  0  0  0  0  0  0  0  0
   -7.7016    6.4032   27.9993 C   0  0  0  0  0  0  0  0  0  0  0  0
   -9.0532    5.2689   26.2991 C   0  0  0  0  0  0  0  0  0  0  0  0
   -4.9597    0.6460   28.2565 C   0  0  0  0  0  0  0  0  0  0  0  0
   -5.4850   -0.5994   28.4798 C   0  0  0  0  0  0  0  0  0  0  0  0
   -4.6491   -1.6877   28.8642 C   0  0  0  0  0  0  0  0  0  0  0  0
   -3.7104    0.7669   28.9067 C   0  0  0  0  0  0  0  0  0  0  0  0
   -2.8727   -0.1972   29.3385 C   0  0  0  0  0  0  0  0  0  0  0  0
   -3.3799   -1.4595   29.3461 C   0  0  0  0  0  0  0  0  0  0  0  0
   -8.3590    7.5620   27.5025 C   0  0  0  0  0  0  0  0  0  0  0  0
   -9.4943    4.0505   25.7456 C   0  0  0  0  0  0  0  0  0  0  0  0
   -8.8914    2.7766   26.2164 C   0  0  0  0  0  0  0  0  0  0  0  0
   -9.3481    1.5506   25.5921 C   0  0  0  0  0  0  0  0  0  0  0  0
   -9.7722    0.5990   26.2168 C   0  0  0  0  0  0  0  0  0  0  0  0
  -10.1694   -0.6524   25.6133 C   0  0  0  0  0  0  0  0  0  0  0  0
  5 10  1  0
  8 16  1  0
 18 19  1  0
 19 20  2  3
 20 21  1  0
  8  7  1  0
  2  3  2  0
  3  5  1  0
  5  6  2  0
  6  4  1  0
  4  1  2  0
  1  2  1  0
  2 18  1  0
 18 17  2  0
 17  9  1  0
  9  7  2  0
  7  1  1  0
 10 11  2  0
 11 12  1  0
 12 15  2  0
 15 14  1  0
 14 13  2  0
 13 10  1  0
M  END
$$$$
