No_3173-complexes_sdf/6BKW-FPZ/2024-09-17-14-21-01/
     RDKit          3D

 26 28  0  0  0  0  0  0  0  0999 V2000
   -7.9040    3.9820   27.1177 C   0  0  0  0  0  0  0  0  0  0  0  0
   -7.8663    4.8694   27.9238 C   0  0  0  0  0  0  0  0  0  0  0  0
   -9.0491    3.8523   26.2542 C   0  0  0  0  0  0  0  0  0  0  0  0
   -8.7661    5.9491   27.9690 C   0  0  0  0  0  0  0  0  0  0  0  0
   -9.9295    4.8502   26.2323 C   0  0  0  0  0  0  0  0  0  0  0  0
   -9.8077    5.9288   27.0933 C   0  0  0  0  0  0  0  0  0  0  0  0
   -9.0726    2.7074   25.3087 C   0  0  0  0  0  0  0  0  0  0  0  0
   -9.9788    1.8124   25.6868 C   0  0  0  0  0  0  0  0  0  0  0  0
  -10.7759    1.6495   26.4594 C   0  0  0  0  0  0  0  0  0  0  0  0
  -10.9487    2.6710   27.5347 C   0  0  0  0  0  0  0  0  0  0  0  0
  -11.9836    2.3166   28.6805 C   0  0  0  0  0  0  0  0  0  0  0  0
   -9.9345    0.6683   24.5148 C   0  0  0  0  0  0  0  0  0  0  0  0
  -10.6126   -0.2582   24.6908 C   0  0  0  0  0  0  0  0  0  0  0  0
  -11.5236   -0.4327   25.7681 C   0  0  0  0  0  0  0  0  0  0  0  0
  -11.6210    0.4976   26.7234 C   0  0  0  0  0  0  0  0  0  0  0  0
  -13.1269    2.7171   28.4340 C   0  0  0  0  0  0  0  0  0  0  0  0
  -13.9695    1.9605   29.0088 F   0  0  0  0  0  0  0  0  0  0  0  0
  -13.5032    2.8201   27.1807 F   0  0  0  0  0  0  0  0  0  0  0  0
  -13.4463    3.9923   28.9692 F   0  0  0  0  0  0  0  0  0  0  0  0
   -6.9574    2.9435   27.1912 N   0  0  0  0  0  0  0  0  0  0  0  0
   -7.1539    1.6012   27.4735 C   0  0  0  0  0  0  0  0  0  0  0  0
   -5.9659    0.7625   27.4847 C   0  0  0  0  0  0  0  0  0  0  0  0
   -6.0051   -0.5625   27.1652 C   0  0  0  0  0  0  0  0  0  0  0  0
   -7.3183   -1.0854   27.0539 C   0  0  0  0  0  0  0  0  0  0  0  0
   -8.4622   -0.3320   27.1150 C   0  0  0  0  0  0  0  0  0  0  0  0
   -8.3232    1.0628   27.2076 C   0  0  0  0  0  0  0  0  0  0  0  0
  3  7  1  0
  7  8  1  0
  9 10  1  0
 10 11  1  0
 11 16  1  0
 16 17  1  0
 16 18  1  0
 16 19  1  0
  1 20  1  0
 20 21  1  0
  8  9  2  0
  9 15  1  0
 15 14  2  0
 14 13  1  0
 13 12  2  0
 12  8  1  0
  1  2  2  0
  2  4  1  0
  4  6  2  0
  6  5  1  0
  5  3  2  0
  3  1  1  0
 21 22  2  0
 22 23  1  0
 23 24  2  0
 24 25  1  0
 25 26  2  0
 26 21  1  0
M  END
$$$$
