No_3554-complexes_sdf/6BKW-FPZ/2024-09-17-14-21-01/
     RDKit          3D

 11 12  0  0  0  0  0  0  0  0999 V2000
   -7.2496    3.8871   27.4508 C   0  0  0  0  0  0  0  0  0  0  0  0
   -7.9379    4.9063   27.8518 C   0  0  0  0  0  0  0  0  0  0  0  0
   -9.3376    4.8647   27.7795 C   0  0  0  0  0  0  0  0  0  0  0  0
   -7.8544    2.6294   27.0414 C   0  0  0  0  0  0  0  0  0  0  0  0
   -9.2665    2.6175   27.0340 C   0  0  0  0  0  0  0  0  0  0  0  0
   -9.9836    3.7042   27.4150 C   0  0  0  0  0  0  0  0  0  0  0  0
   -7.0765    1.4847   26.7707 C   0  0  0  0  0  0  0  0  0  0  0  0
   -7.6103    0.4216   26.0621 C   0  0  0  0  0  0  0  0  0  0  0  0
   -9.0555    0.5178   25.8561 C   0  0  0  0  0  0  0  0  0  0  0  0
   -9.8377    1.5328   26.3628 C   0  0  0  0  0  0  0  0  0  0  0  0
   -7.3483    6.0577   28.2356 O   0  0  0  0  0  0  0  0  0  0  0  0
  2 11  1  0
  5 10  2  0
 10  9  1  0
  9  8  2  0
  8  7  1  0
  7  4  2  0
  1  2  2  0
  2  3  1  0
  3  6  2  0
  6  5  1  0
  5  4  1  0
  4  1  1  0
M  END
$$$$
