No_3167-complexes_sdf/6BKW-FPZ/2024-09-17-14-21-01/
     RDKit          3D

 15 16  0  0  0  0  0  0  0  0999 V2000
   -7.2496    3.8871   27.4508 C   0  0  0  0  0  0  0  0  0  0  0  0
   -7.9379    4.9063   27.8518 C   0  0  0  0  0  0  0  0  0  0  0  0
   -7.5112    6.1898   27.6280 C   0  0  0  0  0  0  0  0  0  0  0  0
   -9.3085    4.6933   28.2930 C   0  0  0  0  0  0  0  0  0  0  0  0
   -7.7804    2.5137   27.6845 C   0  0  0  0  0  0  0  0  0  0  0  0
   -9.1546    2.3397   27.7350 C   0  0  0  0  0  0  0  0  0  0  0  0
   -9.8867    3.4718   28.2310 C   0  0  0  0  0  0  0  0  0  0  0  0
   -6.9583    1.3805   27.1142 C   0  0  0  0  0  0  0  0  0  0  0  0
   -5.8323    1.1558   27.8257 N   0  0  0  0  0  0  0  0  0  0  0  0
   -5.3897    0.0665   28.3816 C   0  0  0  0  0  0  0  0  0  0  0  0
   -4.1417    0.1504   29.1489 C   0  0  0  0  0  0  0  0  0  0  0  0
   -5.9080   -1.1652   27.9177 C   0  0  0  0  0  0  0  0  0  0  0  0
   -3.8484   -0.8330   30.1323 C   0  0  0  0  0  0  0  0  0  0  0  0
   -5.4399   -2.2910   28.8355 C   0  0  0  0  0  0  0  0  0  0  0  0
   -4.3806   -2.1200   29.8054 C   0  0  0  0  0  0  0  0  0  0  0  0
  2  3  1  0
  5  8  1  0
  8  9  1  0
  9 10  1  0
 10 11  2  0
 11 13  1  0
 13 15  2  0
 15 14  1  0
 14 12  2  0
 12 10  1  0
  1  2  2  0
  2  4  1  0
  4  7  2  0
  7  6  1  0
  6  5  2  0
  5  1  1  0
M  END
$$$$
