No_3717-complexes_sdf/6BKW-FPZ/2024-09-17-14-21-01/
     RDKit          3D

 17 19  0  0  0  0  0  0  0  0999 V2000
   -7.7129    4.2099   27.0854 C   0  0  0  0  0  0  0  0  0  0  0  0
   -8.2112    3.0637   26.9225 C   0  0  0  0  0  0  0  0  0  0  0  0
   -7.0021    4.5281   28.2396 C   0  0  0  0  0  0  0  0  0  0  0  0
   -7.5497    1.9016   27.4549 C   0  0  0  0  0  0  0  0  0  0  0  0
   -8.0831    0.6050   27.2852 C   0  0  0  0  0  0  0  0  0  0  0  0
   -7.4142   -0.4553   27.8488 C   0  0  0  0  0  0  0  0  0  0  0  0
   -9.2327    0.5127   26.3772 C   0  0  0  0  0  0  0  0  0  0  0  0
   -9.7048   -0.8283   26.1841 C   0  0  0  0  0  0  0  0  0  0  0  0
   -8.0300   -1.7228   27.6912 C   0  0  0  0  0  0  0  0  0  0  0  0
   -9.1517   -1.8771   26.8622 C   0  0  0  0  0  0  0  0  0  0  0  0
   -9.3638    2.7401   26.2251 C   0  0  0  0  0  0  0  0  0  0  0  0
   -9.8221    1.5214   25.8834 C   0  0  0  0  0  0  0  0  0  0  0  0
   -8.4470    5.3700   26.4969 C   0  0  0  0  0  0  0  0  0  0  0  0
   -8.1735    6.7332   26.9337 C   0  0  0  0  0  0  0  0  0  0  0  0
   -6.8690    5.9083   28.7885 C   0  0  0  0  0  0  0  0  0  0  0  0
   -8.7333    7.8954   26.2894 C   0  0  0  0  0  0  0  0  0  0  0  0
   -7.3698    6.8671   28.0979 C   0  0  0  0  0  0  0  0  0  0  0  0
  1  2  1  0
 14 16  1  0
  1  3  2  0
  3 15  1  0
 15 17  2  0
 17 14  1  0
 14 13  2  0
 13  1  1  0
  2  4  2  0
  4  5  1  0
  7 12  1  0
 12 11  2  0
 11  2  1  0
  5  6  2  0
  6  9  1  0
  9 10  2  0
 10  8  1  0
  8  7  2  0
  7  5  1  0
M  END
$$$$
