No_335-complexes_sdf/6BKW-FPZ/2024-09-17-14-21-01/
     RDKit          3D

  9  9  0  0  0  0  0  0  0  0999 V2000
   -7.9040    3.9820   27.1177 C   0  0  0  0  0  0  0  0  0  0  0  0
   -9.0711    4.3164   27.0630 C   0  0  0  0  0  0  0  0  0  0  0  0
   -9.5294    5.4517   27.7215 C   0  0  0  0  0  0  0  0  0  0  0  0
   -9.9845    3.5634   26.2189 C   0  0  0  0  0  0  0  0  0  0  0  0
  -10.5758    2.5046   26.7628 C   0  0  0  0  0  0  0  0  0  0  0  0
   -6.9870    4.6198   28.1137 C   0  0  0  0  0  0  0  0  0  0  0  0
   -7.4406    5.7934   28.6836 C   0  0  0  0  0  0  0  0  0  0  0  0
   -8.6901    6.2367   28.4600 C   0  0  0  0  0  0  0  0  0  0  0  0
  -11.4453    1.6318   26.0802 C   0  0  0  0  0  0  0  0  0  0  0  0
  2  4  1  0
  4  5  2  3
  5  9  1  0
  1  2  2  0
  2  3  1  0
  3  8  2  0
  8  7  1  0
  7  6  2  0
  6  1  1  0
M  END
$$$$
