No_332-complexes_sdf/6BKW-FPZ/2024-09-17-14-21-01/
     RDKit          3D

 26 28  0  0  0  0  0  0  0  0999 V2000
   -7.9040    3.9820   27.1177 C   0  0  0  0  0  0  0  0  0  0  0  0
   -9.0711    4.3164   27.0630 C   0  0  0  0  0  0  0  0  0  0  0  0
   -9.5182    5.5541   27.5777 C   0  0  0  0  0  0  0  0  0  0  0  0
   -7.4468    2.6843   26.6499 C   0  0  0  0  0  0  0  0  0  0  0  0
   -8.3856    1.7878   26.2216 C   0  0  0  0  0  0  0  0  0  0  0  0
   -9.6812    2.2328   26.0889 C   0  0  0  0  0  0  0  0  0  0  0  0
  -10.0147    3.4312   26.5259 C   0  0  0  0  0  0  0  0  0  0  0  0
   -8.1206    0.3969   25.8410 C   0  0  1  0  0  0  0  0  0  0  0  0
   -7.5668   -0.4503   26.8122 C   0  0  0  0  0  0  0  0  0  0  0  0
   -7.0430   -0.1343   27.8250 C   0  0  0  0  0  0  0  0  0  0  0  0
   -6.4054   -1.0318   28.8059 C   0  0  0  0  0  0  0  0  0  0  0  0
   -6.5252   -2.3577   28.5316 C   0  0  0  0  0  0  0  0  0  0  0  0
   -7.5861   -1.8667   26.5125 C   0  0  0  0  0  0  0  0  0  0  0  0
   -7.1059   -2.7905   27.3835 C   0  0  0  0  0  0  0  0  0  0  0  0
   -9.0913   -0.1939   24.9356 C   0  0  0  0  0  0  0  0  0  0  0  0
   -8.8608    0.3977   23.6136 C   0  0  0  0  0  0  0  0  0  0  0  0
   -9.5505    0.4571   22.7973 C   0  0  0  0  0  0  0  0  0  0  0  0
  -10.8446   -0.1173   22.7071 C   0  0  0  0  0  0  0  0  0  0  0  0
  -11.0378   -0.9076   23.8776 C   0  0  0  0  0  0  0  0  0  0  0  0
   -9.9697   -1.0440   24.9935 C   0  0  0  0  0  0  0  0  0  0  0  0
  -10.7366    5.7050   28.0634 F   0  0  0  0  0  0  0  0  0  0  0  0
   -8.7607    6.0360   28.6818 F   0  0  0  0  0  0  0  0  0  0  0  0
   -9.2161    6.5921   26.6749 F   0  0  0  0  0  0  0  0  0  0  0  0
  -12.2347   -1.8106   23.9664 C   0  0  0  0  0  0  0  0  0  0  0  0
  -13.1221   -1.7670   23.4096 O   0  0  0  0  0  0  0  0  0  0  0  0
  -11.9754   -2.9719   24.7351 O   0  0  0  0  0  0  0  0  0  0  0  0
  2  3  1  0
  8  5  1  1
  8  9  1  0
  8 15  1  0
  3 21  1  0
  3 22  1  0
  3 23  1  0
 19 24  1  0
 24 25  2  0
 24 26  1  0
 15 16  2  0
 16 17  1  0
 17 18  2  0
 18 19  1  0
 19 20  2  0
 20 15  1  0
  1  2  2  0
  2  7  1  0
  7  6  2  0
  6  5  1  0
  5  4  2  0
  4  1  1  0
  9 10  2  0
 10 11  1  0
 11 12  2  0
 12 14  1  0
 14 13  2  0
 13  9  1  0
M  END
$$$$
