No_3216-complexes_sdf/6BKW-FPZ/2024-09-17-14-21-01/
     RDKit          3D

 14 15  0  0  0  0  0  0  0  0999 V2000
   -7.2496    3.8871   27.4508 C   0  0  0  0  0  0  0  0  0  0  0  0
   -7.6161    2.7143   27.1523 C   0  0  0  0  0  0  0  0  0  0  0  0
   -8.8302    2.4659   26.5056 C   0  0  0  0  0  0  0  0  0  0  0  0
   -8.1584    5.0090   27.3234 C   0  0  0  0  0  0  0  0  0  0  0  0
   -7.8138    6.3406   27.7108 C   0  0  0  0  0  0  0  0  0  0  0  0
   -9.7360    3.4989   26.3532 C   0  0  0  0  0  0  0  0  0  0  0  0
   -9.3942    4.8432   26.7521 C   0  0  0  0  0  0  0  0  0  0  0  0
   -9.1857    1.0968   26.1448 C   0  0  0  0  0  0  0  0  0  0  0  0
   -9.6641    0.1591   26.9685 C   0  0  0  0  0  0  0  0  0  0  0  0
   -9.7516   -1.1253   26.8613 C   0  0  0  0  0  0  0  0  0  0  0  0
   -8.2814    0.4765   25.2686 C   0  0  0  0  0  0  0  0  0  0  0  0
   -8.3505   -0.8231   24.8689 C   0  0  0  0  0  0  0  0  0  0  0  0
   -9.0688   -1.6590   25.7542 C   0  0  0  0  0  0  0  0  0  0  0  0
   -8.5363    7.3912   27.2622 N   0  0  0  0  0  0  0  0  0  0  0  0
  4  5  1  0
  3  8  1  0
  5 14  1  0
  1  2  2  0
  2  3  1  0
  3  6  2  0
  6  7  1  0
  7  4  2  0
  4  1  1  0
  8  9  2  0
  9 10  1  0
 10 13  2  0
 13 12  1  0
 12 11  2  0
 11  8  1  0
M  END
$$$$
