No_3628-complexes_sdf/6BKW-FPZ/2024-09-17-14-21-01/
     RDKit          3D

 20 22  0  0  0  0  0  0  0  0999 V2000
   -7.7129    4.2099   27.0854 C   0  0  0  0  0  0  0  0  0  0  0  0
   -8.9133    4.4736   27.0998 C   0  0  0  0  0  0  0  0  0  0  0  0
   -9.8363    3.8127   27.2418 C   0  0  0  0  0  0  0  0  0  0  0  0
   -7.3328    2.8873   27.3965 C   0  0  0  0  0  0  0  0  0  0  0  0
  -11.2512    4.1351   27.3500 C   0  0  0  0  0  0  0  0  0  0  0  0
   -8.3421    1.9461   27.5030 C   0  0  2  0  0  0  0  0  0  0  0  0
   -9.6295    2.3958   27.5129 C   0  0  0  0  0  0  0  0  0  0  0  0
  -12.3523    3.5011   27.5042 C   0  0  0  0  0  0  0  0  0  0  0  0
  -12.2950    2.2378   27.5468 C   0  0  0  0  0  0  0  0  0  0  0  0
  -10.8617    1.5220   27.7157 C   0  0  0  0  0  0  0  0  0  0  0  0
   -9.1066    6.0935   26.9277 C   0  0  0  0  0  0  0  0  0  0  0  0
   -8.3850    6.8385   25.9306 C   0  0  0  0  0  0  0  0  0  0  0  0
   -7.9869    0.5177   27.6704 C   0  0  0  0  0  0  0  0  0  0  0  0
   -7.4520   -0.1404   26.6287 C   0  0  0  0  0  0  0  0  0  0  0  0
   -7.0659   -1.4525   26.7525 C   0  0  0  0  0  0  0  0  0  0  0  0
   -6.0485   -1.9350   26.0618 C   0  0  0  0  0  0  0  0  0  0  0  0
   -5.4807   -3.1684   26.2564 C   0  0  0  0  0  0  0  0  0  0  0  0
   -6.0831   -4.0021   27.1794 C   0  0  0  0  0  0  0  0  0  0  0  0
   -7.1198   -3.5767   27.9090 C   0  0  0  0  0  0  0  0  0  0  0  0
   -7.5817   -2.2642   27.8212 C   0  0  0  0  0  0  0  0  0  0  0  0
  1  2  1  0
  2  3  1  0
  1  4  1  0
  6  4  1  1
  6  7  1  0
  2 11  1  0
 11 12  1  0
  6 13  1  0
 13 14  2  3
 14 15  1  0
  3  5  2  0
  5  8  1  0
  8  9  2  0
  9 10  1  0
 10  7  2  0
  7  3  1  0
 15 16  2  0
 16 17  1  0
 17 18  2  0
 18 19  1  0
 19 20  2  0
 20 15  1  0
M  END
$$$$
