No_3789-complexes_sdf/6BKW-FPZ/2024-09-17-14-21-01/
     RDKit          3D

 15 16  0  0  0  0  0  0  0  0999 V2000
   -7.7129    4.2099   27.0854 C   0  0  0  0  0  0  0  0  0  0  0  0
   -8.2112    3.0637   26.9225 C   0  0  0  0  0  0  0  0  0  0  0  0
   -8.4224    5.2106   27.8516 C   0  0  0  0  0  0  0  0  0  0  0  0
   -9.5628    2.7160   27.4089 C   0  0  0  0  0  0  0  0  0  0  0  0
  -10.2428    3.7496   28.1155 C   0  0  0  0  0  0  0  0  0  0  0  0
   -9.6677    4.9738   28.3232 C   0  0  0  0  0  0  0  0  0  0  0  0
  -11.6117    3.4528   28.6312 C   0  0  0  0  0  0  0  0  0  0  0  0
  -12.5347    4.3440   28.7806 C   0  0  0  0  0  0  0  0  0  0  0  0
  -11.8460    2.0837   29.0498 C   0  0  0  0  0  0  0  0  0  0  0  0
  -13.8135    4.0678   29.2252 C   0  0  0  0  0  0  0  0  0  0  0  0
  -13.1357    1.7725   29.5227 C   0  0  0  0  0  0  0  0  0  0  0  0
  -13.4183    0.4205   29.9040 C   0  0  0  0  0  0  0  0  0  0  0  0
  -14.0630    2.7723   29.6282 C   0  0  0  0  0  0  0  0  0  0  0  0
  -12.7202   -0.4622   29.5041 O   0  0  0  0  0  0  0  0  0  0  0  0
  -12.4590   -1.6119   30.1519 C   0  0  0  0  0  0  0  0  0  0  0  0
  5  7  1  0
 11 12  1  0
 12 14  1  0
 14 15  1  0
  1  2  2  0
  2  4  1  0
  4  5  2  0
  5  6  1  0
  6  3  2  0
  3  1  1  0
  7  8  2  0
  8 10  1  0
 10 13  2  0
 13 11  1  0
 11  9  2  0
  9  7  1  0
M  END
$$$$
