No_326-complexes_sdf/6BKW-FPZ/2024-09-17-14-21-01/
     RDKit          3D

 40 45  0  0  0  0  0  0  0  0999 V2000
   -7.2496    3.8871   27.4508 C   0  0  0  0  0  0  0  0  0  0  0  0
   -7.9379    4.9063   27.8518 C   0  0  0  0  0  0  0  0  0  0  0  0
   -9.3376    4.8647   27.7795 C   0  0  0  0  0  0  0  0  0  0  0  0
   -7.8544    2.6294   27.0414 C   0  0  0  0  0  0  0  0  0  0  0  0
   -9.2665    2.6175   27.0340 C   0  0  0  0  0  0  0  0  0  0  0  0
   -9.9836    3.7042   27.4150 C   0  0  0  0  0  0  0  0  0  0  0  0
   -9.9053    1.3367   26.6546 C   0  0  0  0  0  0  0  0  0  0  0  0
  -10.5453    0.7121   27.6210 C   0  0  0  0  0  0  0  0  0  0  0  0
   -9.7477    0.8420   25.3866 C   0  0  0  0  0  0  0  0  0  0  0  0
  -10.2508   -0.1815   24.9598 C   0  0  0  0  0  0  0  0  0  0  0  0
  -11.1716   -0.5430   27.2673 C   0  0  0  0  0  0  0  0  0  0  0  0
  -11.0218   -0.9758   25.9379 C   0  0  0  0  0  0  0  0  0  0  0  0
   -7.3355    6.0733   28.1788 O   0  0  0  0  0  0  0  0  0  0  0  0
  -10.1388   -0.7378   23.6191 C   0  0  0  0  0  0  0  0  0  0  0  0
  -10.5571   -0.0912   22.5811 C   0  0  0  0  0  0  0  0  0  0  0  0
  -10.2564   -0.4374   21.2673 C   0  0  0  0  0  0  0  0  0  0  0  0
   -9.5041   -1.6223   21.0560 C   0  0  0  0  0  0  0  0  0  0  0  0
   -9.0161   -2.3074   22.1223 C   0  0  0  0  0  0  0  0  0  0  0  0
   -9.2292   -1.8694   23.4190 C   0  0  0  0  0  0  0  0  0  0  0  0
  -11.4603    3.6487   27.4511 C   0  0  0  0  0  0  0  0  0  0  0  0
  -12.1555    3.9579   28.5826 C   0  0  0  0  0  0  0  0  0  0  0  0
  -13.4726    3.7777   28.7080 C   0  0  0  0  0  0  0  0  0  0  0  0
  -14.2424    3.4762   27.6122 C   0  0  0  0  0  0  0  0  0  0  0  0
  -13.5513    3.2430   26.3920 C   0  0  0  0  0  0  0  0  0  0  0  0
  -12.1701    3.3142   26.3385 C   0  0  0  0  0  0  0  0  0  0  0  0
   -7.0631    1.6541   26.7826 O   0  0  0  0  0  0  0  0  0  0  0  0
   -6.1207    1.1879   27.6999 C   0  0  0  0  0  0  0  0  0  0  0  0
   -5.1652    0.1908   27.1606 C   0  0  0  0  0  0  0  0  0  0  0  0
   -5.0792   -0.8791   28.0122 C   0  0  0  0  0  0  0  0  0  0  0  0
   -6.1482   -1.7099   28.2235 C   0  0  0  0  0  0  0  0  0  0  0  0
   -6.4326   -2.2470   29.3414 C   0  0  0  0  0  0  0  0  0  0  0  0
   -7.6940   -2.9244   29.6424 C   0  0  0  0  0  0  0  0  0  0  0  0
   -8.6010   -2.9630   28.5676 C   0  0  0  0  0  0  0  0  0  0  0  0
   -8.3248   -2.4180   27.3580 C   0  0  0  0  0  0  0  0  0  0  0  0
   -7.0854   -1.7167   27.1992 C   0  0  0  0  0  0  0  0  0  0  0  0
   -4.5305   -0.2365   29.2500 C   0  0  0  0  0  0  0  0  0  0  0  0
   -3.0341   -0.2443   29.4732 C   0  0  0  0  0  0  0  0  0  0  0  0
   -3.8965   -1.8898   27.5721 C   0  0  0  0  0  0  0  0  0  0  0  0
   -2.5383   -1.5090   27.5747 C   0  0  0  0  0  0  0  0  0  0  0  0
   -2.0986   -0.8995   28.8116 C   0  0  0  0  0  0  0  0  0  0  0  0
  5  7  1  0
  2 13  1  0
 10 14  1  0
  6 20  1  0
  4 26  1  0
 26 27  1  0
 27 28  1  0
 28 29  1  0
 29 30  1  0
 29 36  1  0
 36 37  1  0
 29 38  1  0
 38 39  1  0
 37 40  1  0
 39 40  1  0
  1  2  2  0
  2  3  1  0
  3  6  2  0
  6  5  1  0
  5  4  2  0
  4  1  1  0
  7  8  2  0
  8 11  1  0
 11 12  2  0
 12 10  1  0
 10  9  2  0
  9  7  1  0
 30 31  2  0
 31 32  1  0
 32 33  2  0
 33 34  1  0
 34 35  2  0
 35 30  1  0
 14 15  2  0
 15 16  1  0
 16 17  2  0
 17 18  1  0
 18 19  2  0
 19 14  1  0
 20 21  2  0
 21 22  1  0
 22 23  2  0
 23 24  1  0
 24 25  2  0
 25 20  1  0
M  END
$$$$
