No_3386-complexes_sdf/6BKW-FPZ/2024-09-17-14-21-01/
     RDKit          3D

 30 33  0  0  0  0  0  0  0  0999 V2000
   -7.9040    3.9820   27.1177 C   0  0  0  0  0  0  0  0  0  0  0  0
   -7.8663    4.8694   27.9238 C   0  0  0  0  0  0  0  0  0  0  0  0
   -7.4547    2.7080   27.4594 C   0  0  0  0  0  0  0  0  0  0  0  0
   -7.9337    1.5946   26.8372 C   0  0  0  0  0  0  0  0  0  0  0  0
   -8.9032    1.7881   25.8510 C   0  0  0  0  0  0  0  0  0  0  0  0
   -9.3787    2.9871   25.5530 C   0  0  0  0  0  0  0  0  0  0  0  0
   -8.9781    4.0300   26.2200 C   0  0  0  0  0  0  0  0  0  0  0  0
   -8.2132    6.2312   27.6173 N   0  0  0  0  0  0  0  0  0  0  0  0
   -9.1696    6.5863   26.7528 C   0  0  0  0  0  0  0  0  0  0  0  0
   -9.5393    5.4067   25.9211 C   0  0  0  0  0  0  0  0  0  0  0  0
   -7.3285    0.2615   27.1217 C   0  0  0  0  0  0  0  0  0  0  0  0
   -6.0542    0.1237   27.6096 C   0  0  0  0  0  0  0  0  0  0  0  0
   -5.5312   -1.0783   28.0224 C   0  0  0  0  0  0  0  0  0  0  0  0
   -6.3764   -2.1686   27.9003 C   0  0  0  0  0  0  0  0  0  0  0  0
   -8.0087   -0.9634   27.1605 C   0  0  0  0  0  0  0  0  0  0  0  0
   -7.6033   -2.0968   27.5262 C   0  0  0  0  0  0  0  0  0  0  0  0
   -4.1181   -1.1127   28.5244 C   0  0  0  0  0  0  0  0  0  0  0  0
   -3.9068   -0.7670   29.8106 N   0  0  0  0  0  0  0  0  0  0  0  0
   -4.1957   -1.2118   30.9324 C   0  0  0  0  0  0  0  0  0  0  0  0
   -4.9034   -2.0104   31.0368 F   0  0  0  0  0  0  0  0  0  0  0  0
   -2.9439   -1.6157   31.4755 F   0  0  0  0  0  0  0  0  0  0  0  0
   -4.5110   -0.0696   31.6741 F   0  0  0  0  0  0  0  0  0  0  0  0
   -2.9238    0.4990   29.7231 C   0  0  0  0  0  0  0  0  0  0  0  0
   -3.2360   -1.7888   27.8347 O   0  0  0  0  0  0  0  0  0  0  0  0
  -10.2971    3.2510   24.4231 C   0  0  0  0  0  0  0  0  0  0  0  0
   -9.9586    3.3040   23.1042 C   0  0  0  0  0  0  0  0  0  0  0  0
  -10.8438    3.5699   22.0631 C   0  0  0  0  0  0  0  0  0  0  0  0
  -11.6827    2.9059   24.5723 C   0  0  0  0  0  0  0  0  0  0  0  0
  -12.6329    3.1094   23.5758 C   0  0  0  0  0  0  0  0  0  0  0  0
  -12.2079    3.4209   22.2836 C   0  0  0  0  0  0  0  0  0  0  0  0
  4 11  1  0
 13 17  1  0
 17 18  1  0
 18 19  1  0
 19 20  1  0
 19 21  1  0
 19 22  1  0
 18 23  1  0
 17 24  2  0
  6 25  1  0
 25 26  2  0
 26 27  1  0
 27 30  2  0
 30 29  1  0
 29 28  2  0
 28 25  1  0
  1  2  2  0
  2  8  1  0
  8  9  2  0
  9 10  1  0
 10  7  2  0
 11 12  2  0
 12 13  1  0
 13 14  2  0
 14 16  1  0
 16 15  2  0
 15 11  1  0
  1  3  1  0
  3  4  2  0
  4  5  1  0
  5  6  2  0
  6  7  1  0
  7  1  1  0
M  END
$$$$
