No_3499-complexes_sdf/6BKW-FPZ/2024-09-17-14-21-01/
     RDKit          3D

 38 43  0  0  0  0  0  0  0  0999 V2000
   -7.7129    4.2099   27.0854 C   0  0  0  0  0  0  0  0  0  0  0  0
   -7.7814    5.1722   27.8972 C   0  0  0  0  0  0  0  0  0  0  0  0
   -7.2983    2.9533   27.5684 C   0  0  0  0  0  0  0  0  0  0  0  0
   -6.0337    2.9060   27.9106 C   0  0  0  0  0  0  0  0  0  0  0  0
   -8.3690    6.4367   27.4593 C   0  0  0  0  0  0  0  0  0  0  0  0
   -9.0204    6.4787   26.2055 C   0  0  0  0  0  0  0  0  0  0  0  0
   -8.6381    4.2863   25.9600 C   0  0  0  0  0  0  0  0  0  0  0  0
   -9.2601    5.4129   25.5678 C   0  0  0  0  0  0  0  0  0  0  0  0
   -5.3365    1.6276   28.1778 C   0  0  0  0  0  0  0  0  0  0  0  0
   -6.0517    0.4328   27.9364 C   0  0  0  0  0  0  0  0  0  0  0  0
   -7.8871    1.7387   27.1762 C   0  0  0  0  0  0  0  0  0  0  0  0
   -7.3327    0.5282   27.3966 C   0  0  0  0  0  0  0  0  0  0  0  0
   -5.4080   -0.8368   28.1963 C   0  0  0  0  0  0  0  0  0  0  0  0
   -5.9832   -1.9198   28.0751 C   0  0  0  0  0  0  0  0  0  0  0  0
   -7.3391   -1.8147   27.4843 C   0  0  0  0  0  0  0  0  0  0  0  0
   -7.9944   -0.6925   27.1968 C   0  0  0  0  0  0  0  0  0  0  0  0
   -4.0063   -0.7934   28.8141 C   0  0  0  0  0  0  0  0  0  0  0  0
   -3.8289   -0.6550   30.1476 C   0  0  0  0  0  0  0  0  0  0  0  0
   -2.7210   -1.3208   30.7753 C   0  0  0  0  0  0  0  0  0  0  0  0
   -1.6444   -1.7093   29.9475 C   0  0  0  0  0  0  0  0  0  0  0  0
   -1.7540   -1.6436   28.5830 C   0  0  0  0  0  0  0  0  0  0  0  0
   -2.9629   -1.2662   27.9377 C   0  0  0  0  0  0  0  0  0  0  0  0
   -2.5026   -1.1213   32.2453 C   0  0  0  0  0  0  0  0  0  0  0  0
   -2.8735   -0.1360   32.8454 O   0  0  0  0  0  0  0  0  0  0  0  0
   -1.9280   -2.1478   32.8967 N   0  0  0  0  0  0  0  0  0  0  0  0
   -1.7065   -2.0628   34.3709 C   0  0  0  0  0  0  0  0  0  0  0  0
   -2.3969   -1.2299   35.0629 C   0  0  1  0  0  0  0  0  0  0  0  0
   -3.6097   -1.6173   35.3918 C   0  0  0  0  0  0  0  0  0  0  0  0
   -4.1745   -1.4848   36.2392 C   0  0  0  0  0  0  0  0  0  0  0  0
   -5.6156   -1.8712   36.5729 C   0  0  0  0  0  0  0  0  0  0  0  0
   -6.2630   -2.4579   35.5584 C   0  0  0  0  0  0  0  0  0  0  0  0
   -5.6995   -2.5683   34.3400 C   0  0  0  0  0  0  0  0  0  0  0  0
   -4.3729   -2.1056   34.1805 C   0  0  0  0  0  0  0  0  0  0  0  0
   -0.7357   -3.0177   34.8324 C   0  0  0  0  0  0  0  0  0  0  0  0
    0.1549   -2.5426   35.6937 C   0  0  0  0  0  0  0  0  0  0  0  0
    0.2406   -1.0731   35.9726 C   0  0  0  0  0  0  0  0  0  0  0  0
   -0.8214   -0.1705   36.1921 C   0  0  0  0  0  0  0  0  0  0  0  0
   -1.8639   -0.2563   35.9085 C   0  0  0  0  0  0  0  0  0  0  0  0
  1  3  1  0
 13 17  1  0
 19 23  1  0
 23 24  2  0
 23 25  1  0
 25 26  1  0
 26 27  1  0
 26 34  1  0
 34 35  2  0
 35 36  1  0
 36 37  2  0
 27 38  1  0
 37 38  1  0
 27 28  1  1
 28 29  2  0
 29 30  1  0
 30 31  2  0
 31 32  1  0
 32 33  2  0
 33 28  1  0
 12 16  1  0
 16 15  2  0
 15 14  1  0
 14 13  2  0
 13 10  1  0
  3  4  2  0
  4  9  1  0
  9 10  2  0
 10 12  1  0
 12 11  2  0
 11  3  1  0
 17 18  2  0
 18 19  1  0
 19 20  2  0
 20 21  1  0
 21 22  2  0
 22 17  1  0
  1  2  2  0
  2  5  1  0
  5  6  2  0
  6  8  1  0
  8  7  2  0
  7  1  1  0
M  END
$$$$
