No_3412-complexes_sdf/6BKW-FPZ/2024-09-17-14-21-01/
     RDKit          3D

 36 40  0  0  0  0  0  0  0  0999 V2000
   -7.7129    4.2099   27.0854 C   0  0  0  0  0  0  0  0  0  0  0  0
   -8.9133    4.4736   27.0998 C   0  0  0  0  0  0  0  0  0  0  0  0
   -9.4643    5.5426   27.7628 C   0  0  0  0  0  0  0  0  0  0  0  0
   -7.2009    2.9448   26.6134 C   0  0  0  0  0  0  0  0  0  0  0  0
   -8.1365    1.9533   26.2981 C   0  0  0  0  0  0  0  0  0  0  0  0
   -9.4501    2.2651   26.2497 C   0  0  0  0  0  0  0  0  0  0  0  0
   -9.8615    3.4703   26.6763 C   0  0  0  0  0  0  0  0  0  0  0  0
   -7.5839    0.6450   25.9087 C   0  0  0  0  0  0  0  0  0  0  0  0
   -7.7259    0.2664   24.7999 O   0  0  0  0  0  0  0  0  0  0  0  0
   -6.9902   -0.0633   26.8497 O   0  0  0  0  0  0  0  0  0  0  0  0
   -6.3497   -1.1635   26.7545 C   0  0  1  0  0  0  0  0  0  0  0  0
   -5.0275   -1.1363   26.8614 C   0  0  0  0  0  0  0  0  0  0  0  0
   -4.4688   -1.5307   28.0925 C   0  0  0  0  0  0  0  0  0  0  0  0
   -5.1229   -1.3118   29.1587 C   0  0  0  0  0  0  0  0  0  0  0  0
   -4.6005   -1.4877   30.5430 C   0  0  0  0  0  0  0  0  0  0  0  0
   -3.2193   -1.7368   30.6140 C   0  0  0  0  0  0  0  0  0  0  0  0
   -2.4910   -1.8866   29.4759 C   0  0  0  0  0  0  0  0  0  0  0  0
   -3.0459   -1.6799   28.2254 C   0  0  0  0  0  0  0  0  0  0  0  0
   -7.0688   -2.2971   26.6375 C   0  0  2  0  0  0  0  0  0  0  0  0
   -5.5847   -1.2894   31.9315 Cl  0  0  0  0  0  0  0  0  0  0  0  0
   -8.1240   -2.5688   27.4852 C   0  0  0  0  0  0  0  0  0  0  0  0
   -8.8891   -3.5858   27.4312 C   0  0  0  0  0  0  0  0  0  0  0  0
   -6.6084   -3.4490   26.0659 C   0  0  0  0  0  0  0  0  0  0  0  0
   -5.4538   -3.3313   25.1419 C   0  0  0  0  0  0  0  0  0  0  0  0
  -10.0571   -3.7016   28.2431 C   0  0  0  0  0  0  0  0  0  0  0  0
  -10.4480   -2.6328   29.1026 C   0  0  0  0  0  0  0  0  0  0  0  0
   -9.7175   -1.4202   29.0331 C   0  0  0  0  0  0  0  0  0  0  0  0
   -8.6574   -1.3708   28.2835 C   0  0  0  0  0  0  0  0  0  0  0  0
   -6.4409   -4.6269   26.8585 C   0  0  0  0  0  0  0  0  0  0  0  0
   -5.9007   -5.8187   26.2725 C   0  0  0  0  0  0  0  0  0  0  0  0
   -4.9345   -4.5047   24.4922 C   0  0  0  0  0  0  0  0  0  0  0  0
   -4.8438   -5.6351   25.3452 C   0  0  0  0  0  0  0  0  0  0  0  0
   -7.8248   -3.8204   25.1953 C   0  0  0  0  0  0  0  0  0  0  0  0
   -9.0006   -4.1216   26.0496 C   0  0  1  0  0  0  0  0  0  0  0  0
   -9.9887   -4.9898   25.5983 C   0  0  0  0  0  0  0  0  0  0  0  0
  -11.0357   -4.3901   24.9839 C   0  0  0  0  0  0  0  0  0  0  0  0
  1  2  1  0
  2  3  2  0
  1  4  1  0
  4  5  1  0
  5  6  1  0
  2  7  1  0
  6  7  1  0
  5  8  1  0
  8  9  2  0
  8 10  1  0
 10 11  1  0
 11 12  1  1
 12 13  1  0
 11 19  1  0
 15 20  1  0
 19 21  1  0
 19 23  1  1
 23 24  1  0
 23 29  1  0
 30 32  1  0
 31 32  1  0
 23 33  1  0
 22 34  1  0
 33 34  1  0
 34 35  1  1
 35 36  2  0
 24 31  1  0
 30 29  1  0
 21 28  1  0
 28 27  2  0
 27 26  1  0
 26 25  2  0
 25 22  1  0
 22 21  2  0
 13 14  2  0
 14 15  1  0
 15 16  2  0
 16 17  1  0
 17 18  2  0
 18 13  1  0
M  END
$$$$
