No_3661-complexes_sdf/6BKW-FPZ/2024-09-17-14-21-01/
     RDKit          3D

 14 15  0  0  0  0  0  0  0  0999 V2000
   -7.9040    3.9820   27.1177 C   0  0  0  0  0  0  0  0  0  0  0  0
   -8.2057    2.8231   26.8733 C   0  0  0  0  0  0  0  0  0  0  0  0
   -7.4766    1.7477   27.4593 C   0  0  0  0  0  0  0  0  0  0  0  0
   -8.7468    5.1251   26.6967 C   0  0  0  0  0  0  0  0  0  0  0  0
   -8.4775    6.4967   27.1056 C   0  0  0  0  0  0  0  0  0  0  0  0
   -7.7864    0.3940   27.2703 C   0  0  0  0  0  0  0  0  0  0  0  0
   -9.0192    0.1650   26.6014 C   0  0  0  0  0  0  0  0  0  0  0  0
   -9.7483    1.1632   26.0299 C   0  0  0  0  0  0  0  0  0  0  0  0
   -9.3475    2.4797   26.2024 C   0  0  0  0  0  0  0  0  0  0  0  0
   -9.3104    7.5147   26.6382 C   0  0  0  0  0  0  0  0  0  0  0  0
   -9.7836    4.8839   25.7643 C   0  0  0  0  0  0  0  0  0  0  0  0
  -10.1781    3.5102   25.6026 C   0  0  0  0  0  0  0  0  0  0  0  0
   -7.2178    6.7032   27.7676 C   0  0  0  0  0  0  0  0  0  0  0  0
   -6.8783   -0.8367   27.9853 Cl  0  0  0  0  0  0  0  0  0  0  0  0
  5 10  1  0
  5 13  1  0
  6 14  1  0
  5  4  1  0
  2  3  1  0
  3  6  2  0
  6  7  1  0
  7  8  2  0
  8  9  1  0
  1  2  2  0
  2  9  1  0
  9 12  2  0
 12 11  1  0
 11  4  2  0
  4  1  1  0
M  END
$$$$
