No_3488-complexes_sdf/6BKW-FPZ/2024-09-17-14-21-01/
     RDKit          3D

 32 35  0  0  0  0  0  0  0  0999 V2000
   -7.2496    3.8871   27.4508 C   0  0  0  0  0  0  0  0  0  0  0  0
   -7.6161    2.7143   27.1523 C   0  0  0  0  0  0  0  0  0  0  0  0
   -8.8302    2.4659   26.5056 C   0  0  0  0  0  0  0  0  0  0  0  0
   -8.1584    5.0090   27.3234 C   0  0  0  0  0  0  0  0  0  0  0  0
   -9.3788    4.7965   26.7695 C   0  0  0  0  0  0  0  0  0  0  0  0
   -9.7028    3.5649   26.3276 C   0  0  0  0  0  0  0  0  0  0  0  0
   -6.7182    1.5519   27.3631 C   0  0  0  0  0  0  0  0  0  0  0  0
   -7.0500    0.2083   27.2450 C   0  0  0  0  0  0  0  0  0  0  0  0
   -8.3879    0.0846   26.7095 C   0  0  0  0  0  0  0  0  0  0  0  0
   -9.2609    1.1266   26.3193 C   0  0  0  0  0  0  0  0  0  0  0  0
   -7.6070    6.5719   27.8653 Cl  0  0  0  0  0  0  0  0  0  0  0  0
  -10.9821    3.3954   25.6201 C   0  0  0  0  0  0  0  0  0  0  0  0
  -12.1309    3.4208   26.2445 C   0  0  0  0  0  0  0  0  0  0  0  0
  -13.3395    3.4841   25.6515 C   0  0  0  0  0  0  0  0  0  0  0  0
  -10.9542    3.2669   24.2149 C   0  0  0  0  0  0  0  0  0  0  0  0
  -12.1399    3.3305   23.5111 C   0  0  0  0  0  0  0  0  0  0  0  0
  -13.3391    3.4484   24.2447 C   0  0  0  0  0  0  0  0  0  0  0  0
   -6.2609   -0.8330   27.6062 C   0  0  0  0  0  0  0  0  0  0  0  0
   -5.0542   -0.6952   27.9916 N   0  0  0  0  0  0  0  0  0  0  0  0
   -4.3008   -1.5862   28.5455 C   0  0  0  0  0  0  0  0  0  0  0  0
   -4.5303   -2.6744   28.6062 C   0  0  0  0  0  0  0  0  0  0  0  0
   -6.7054   -2.1298   27.8882 C   0  0  0  0  0  0  0  0  0  0  0  0
   -6.0182   -2.8418   28.3350 C   0  0  0  0  0  0  0  0  0  0  0  0
   -2.7831   -1.0438   28.8129 C   0  0  2  0  0  0  0  0  0  0  0  0
   -2.4415   -0.9799   30.0222 C   0  0  0  0  0  0  0  0  0  0  0  0
   -1.9925   -0.5680   27.7219 C   0  0  0  0  0  0  0  0  0  0  0  0
   -2.8150   -1.4577   31.1014 C   0  0  0  0  0  0  0  0  0  0  0  0
   -2.4765   -1.0161   32.4051 C   0  0  0  0  0  0  0  0  0  0  0  0
   -2.4683   -1.7593   33.4718 C   0  0  0  0  0  0  0  0  0  0  0  0
   -3.1857   -2.9189   33.4968 C   0  0  0  0  0  0  0  0  0  0  0  0
   -3.3412   -3.6437   34.6511 C   0  0  0  0  0  0  0  0  0  0  0  0
   -1.6685    0.4528   27.2875 C   0  0  0  0  0  0  0  0  0  0  0  0
  4 11  1  0
  6 12  1  0
  8 18  1  0
 20 24  1  0
 24 25  1  1
 24 26  1  0
 25 27  1  0
 27 28  2  3
 28 29  1  0
 29 30  2  3
 30 31  1  0
 26 32  2  0
 12 13  2  0
 13 14  1  0
 14 17  2  0
 17 16  1  0
 16 15  2  0
 15 12  1  0
 18 19  2  0
 19 20  1  0
 20 21  2  0
 21 23  1  0
 23 22  2  0
 22 18  1  0
  1  2  2  0
  3  6  2  0
  6  5  1  0
  5  4  2  0
  4  1  1  0
  2  3  1  0
  3 10  1  0
 10  9  2  0
  9  8  1  0
  8  7  2  0
  7  2  1  0
M  END
$$$$
