No_3279-complexes_sdf/6BKW-FPZ/2024-09-17-14-21-01/
     RDKit          3D

 31 34  0  0  0  0  0  0  0  0999 V2000
   -7.7129    4.2099   27.0854 C   0  0  0  0  0  0  0  0  0  0  0  0
   -7.7814    5.1722   27.8972 C   0  0  0  0  0  0  0  0  0  0  0  0
   -8.8776    3.8408   26.3416 C   0  0  0  0  0  0  0  0  0  0  0  0
   -9.9844    4.6492   26.4743 C   0  0  0  0  0  0  0  0  0  0  0  0
   -8.8033    6.1375   27.8728 C   0  0  0  0  0  0  0  0  0  0  0  0
   -9.9554    5.8280   27.1737 C   0  0  0  0  0  0  0  0  0  0  0  0
   -8.8740    2.6184   25.5584 C   0  0  0  0  0  0  0  0  0  0  0  0
   -8.2513    1.5373   26.0855 N   0  0  0  0  0  0  0  0  0  0  0  0
   -7.7161    1.5499   27.2323 C   0  0  0  0  0  0  0  0  0  0  0  0
   -7.0398    0.3126   27.5583 C   0  0  0  0  0  0  0  0  0  0  0  0
   -8.2568    0.3949   25.3044 C   0  0  0  0  0  0  0  0  0  0  0  0
   -7.6140   -0.7374   25.6334 C   0  0  0  0  0  0  0  0  0  0  0  0
   -6.9465   -0.7548   26.8591 C   0  0  0  0  0  0  0  0  0  0  0  0
   -9.5039    2.6414   24.4836 O   0  0  0  0  0  0  0  0  0  0  0  0
   -6.6730    5.6034   28.6246 O   0  0  0  0  0  0  0  0  0  0  0  0
   -6.2583   -1.9657   27.3305 C   0  0  0  0  0  0  0  0  0  0  0  0
   -5.8555   -1.9198   28.5427 C   0  0  0  0  0  0  0  0  0  0  0  0
   -6.5912   -2.3739   29.6652 C   0  0  0  0  0  0  0  0  0  0  0  0
   -6.1695   -2.2506   31.0440 C   0  0  0  0  0  0  0  0  0  0  0  0
   -4.9551   -1.5825   31.3166 C   0  0  0  0  0  0  0  0  0  0  0  0
   -4.1975   -1.0779   30.2673 C   0  0  0  0  0  0  0  0  0  0  0  0
   -4.6518   -1.1963   28.9676 C   0  0  0  0  0  0  0  0  0  0  0  0
   -4.5821   -1.5846   32.7288 C   0  0  0  0  0  0  0  0  0  0  0  0
   -3.9105   -2.4570   33.1523 O   0  0  0  0  0  0  0  0  0  0  0  0
   -4.5916   -0.3219   33.3117 O   0  0  0  0  0  0  0  0  0  0  0  0
   -3.7875   -0.6125   27.9331 C   0  0  0  0  0  0  0  0  0  0  0  0
   -2.9502    0.0037   27.8844 C   0  0  0  0  0  0  0  0  0  0  0  0
   -2.1801    0.5785   26.7785 C   0  0  0  0  0  0  0  0  0  0  0  0
   -2.8320    0.3361   25.5555 C   0  0  0  0  0  0  0  0  0  0  0  0
   -3.9206   -0.4598   25.4680 C   0  0  0  0  0  0  0  0  0  0  0  0
   -4.4429   -0.9432   26.5823 C   0  0  0  0  0  0  0  0  0  0  0  0
  3  7  1  0
  7  8  1  0
  8  9  1  0
  8 11  1  0
 10 13  1  0
 12 13  1  0
  7 14  2  0
  2 15  1  0
 13 16  1  0
 16 17  1  0
 20 23  1  0
 23 24  2  0
 23 25  1  0
 22 26  1  0
  9 10  1  0
 12 11  1  0
 17 18  2  0
 18 19  1  0
 19 20  2  0
 20 21  1  0
 21 22  2  0
 22 17  1  0
  1  2  2  0
  2  5  1  0
  5  6  2  0
  6  4  1  0
  4  3  2  0
  3  1  1  0
 26 27  2  0
 27 28  1  0
 28 29  2  0
 29 30  1  0
 30 31  2  0
 31 26  1  0
M  END
$$$$
