No_3440-complexes_sdf/6BKW-FPZ/2024-09-17-14-21-01/
     RDKit          3D

 14 15  0  0  0  0  0  0  0  0999 V2000
   -7.9040    3.9820   27.1177 C   0  0  0  0  0  0  0  0  0  0  0  0
   -7.8663    4.8694   27.9238 C   0  0  0  0  0  0  0  0  0  0  0  0
   -9.0953    3.1697   27.0532 C   0  0  0  0  0  0  0  0  0  0  0  0
  -10.1313    3.4052   27.8871 C   0  0  0  0  0  0  0  0  0  0  0  0
  -11.2910    2.5514   27.9289 C   0  0  0  0  0  0  0  0  0  0  0  0
   -8.9775    5.3451   28.7374 C   0  0  0  0  0  0  0  0  0  0  0  0
  -10.0738    4.4970   28.7375 C   0  0  0  0  0  0  0  0  0  0  0  0
  -11.9427    2.4456   26.8910 C   0  0  0  0  0  0  0  0  0  0  0  0
  -13.0691    1.7177   26.8890 C   0  0  0  0  0  0  0  0  0  0  0  0
  -13.8231    1.5306   25.6583 C   0  0  0  0  0  0  0  0  0  0  0  0
  -13.3733    2.1657   24.5365 C   0  0  0  0  0  0  0  0  0  0  0  0
  -12.2266    2.9562   24.5556 C   0  0  0  0  0  0  0  0  0  0  0  0
  -11.5011    3.1201   25.7011 C   0  0  0  0  0  0  0  0  0  0  0  0
  -11.4540    1.9129   29.0791 O   0  0  0  0  0  0  0  0  0  0  0  0
  4  5  1  0
  5  8  1  0
  5 14  2  0
  1  2  2  0
  2  6  1  0
  6  7  2  0
  7  4  1  0
  4  3  2  0
  3  1  1  0
  8  9  2  0
  9 10  1  0
 10 11  2  0
 11 12  1  0
 12 13  2  0
 13  8  1  0
M  END
$$$$
