No_3655-complexes_sdf/6BKW-FPZ/2024-09-17-14-21-01/
     RDKit          3D

 40 44  0  0  0  0  0  0  0  0999 V2000
   -7.7129    4.2099   27.0854 C   0  0  0  0  0  0  0  0  0  0  0  0
   -8.2112    3.0637   26.9225 C   0  0  0  0  0  0  0  0  0  0  0  0
   -9.4446    2.8304   26.1868 C   0  0  0  0  0  0  0  0  0  0  0  0
   -8.4697    5.3956   26.7238 C   0  0  0  0  0  0  0  0  0  0  0  0
   -9.6172    5.2111   25.9513 C   0  0  0  0  0  0  0  0  0  0  0  0
  -10.0424    3.9782   25.6873 C   0  0  0  0  0  0  0  0  0  0  0  0
   -7.5056    1.8167   27.4088 C   0  0  0  0  0  0  0  0  0  0  0  0
   -6.2319    1.8972   27.8053 N   0  0  0  0  0  0  0  0  0  0  0  0
   -5.5697    0.7500   28.1820 C   0  0  0  0  0  0  0  0  0  0  0  0
   -6.2045   -0.4233   28.0802 C   0  0  0  0  0  0  0  0  0  0  0  0
   -7.9663    0.5060   27.3448 C   0  0  0  0  0  0  0  0  0  0  0  0
   -7.4302   -0.5480   27.7381 C   0  0  0  0  0  0  0  0  0  0  0  0
   -4.2297    1.1767   28.4995 N   0  0  0  0  0  0  0  0  0  0  0  0
   -7.7991    6.6652   27.0960 C   0  0  0  0  0  0  0  0  0  0  0  0
   -8.5090    7.8289   26.8024 N   0  0  0  0  0  0  0  0  0  0  0  0
   -6.8446    6.6905   27.8178 O   0  0  0  0  0  0  0  0  0  0  0  0
  -11.2357    3.8085   24.8413 C   0  0  0  0  0  0  0  0  0  0  0  0
  -11.0449    3.4036   23.5605 C   0  0  0  0  0  0  0  0  0  0  0  0
  -12.1373    3.2685   22.6485 C   0  0  0  0  0  0  0  0  0  0  0  0
  -13.4101    3.6186   23.0696 C   0  0  0  0  0  0  0  0  0  0  0  0
  -12.5645    4.1379   25.2288 C   0  0  0  0  0  0  0  0  0  0  0  0
  -13.6098    4.1129   24.4226 C   0  0  0  0  0  0  0  0  0  0  0  0
   -5.3360   -1.5921   28.5979 C   0  0  0  0  0  0  0  0  0  0  0  0
   -4.0679   -1.4167   28.8558 C   0  0  0  0  0  0  0  0  0  0  0  0
   -3.4851    0.0195   28.8938 C   0  0  0  0  0  0  0  0  0  0  0  0
  -14.8491    4.4360   24.7495 F   0  0  0  0  0  0  0  0  0  0  0  0
  -11.8881    2.8470   21.2881 C   0  0  0  0  0  0  0  0  0  0  0  0
  -11.7681    1.9683   20.8240 C   0  0  0  0  0  0  0  0  0  0  0  0
  -11.4138    1.6192   19.4328 C   0  0  0  0  0  0  0  0  0  0  0  0
  -11.3196    2.7603   18.6038 C   0  0  0  0  0  0  0  0  0  0  0  0
  -11.3850    4.0008   19.1227 C   0  0  0  0  0  0  0  0  0  0  0  0
  -11.6455    4.2073   20.4341 C   0  0  0  0  0  0  0  0  0  0  0  0
  -11.8417    0.7277   21.5284 O   0  0  0  0  0  0  0  0  0  0  0  0
  -11.6624   -0.4349   21.2292 C   0  0  0  0  0  0  0  0  0  0  0  0
  -11.9856   -1.5339   22.1255 C   0  0  0  0  0  0  0  0  0  0  0  0
  -11.7989   -2.6264   21.7401 O   0  0  0  0  0  0  0  0  0  0  0  0
  -12.5295   -1.2664   23.2107 O   0  0  0  0  0  0  0  0  0  0  0  0
  -11.0286   -0.7365   20.1772 O   0  0  0  0  0  0  0  0  0  0  0  0
  -14.7100    3.5130   22.0401 Cl  0  0  0  0  0  0  0  0  0  0  0  0
   -5.8669   -2.9185   28.6035 C   0  0  0  0  0  0  0  0  0  0  0  0
  2  7  1  0
  4 14  1  0
 14 15  1  0
 14 16  2  0
  6 17  1  0
 22 26  1  0
 19 27  1  0
 28 33  1  0
 33 34  1  0
 34 35  1  0
 35 36  1  0
 35 37  2  0
 34 38  2  0
 20 39  1  0
 23 40  1  0
 17 18  2  0
 18 19  1  0
 19 20  2  0
 20 22  1  0
 22 21  2  0
 21 17  1  0
  1  2  2  0
  2  3  1  0
  3  6  2  0
  6  5  1  0
  5  4  2  0
  4  1  1  0
 27 28  2  0
 28 29  1  0
 29 30  2  0
 30 31  1  0
 31 32  2  0
 32 27  1  0
 10 23  2  0
 23 24  1  0
 24 25  2  0
 25 13  1  0
 13  9  2  0
  7  8  2  0
  8  9  1  0
  9 10  1  0
 10 12  1  0
 12 11  2  0
 11  7  1  0
M  END
$$$$
