No_3191-complexes_sdf/6BKW-FPZ/2024-09-17-14-21-01/
     RDKit          3D

 25 27  0  0  0  0  0  0  0  0999 V2000
   -7.7129    4.2099   27.0854 C   0  0  0  0  0  0  0  0  0  0  0  0
   -8.9133    4.4736   27.0998 C   0  0  2  0  0  0  0  0  0  0  0  0
   -9.7135    3.9633   26.0300 C   0  0  0  0  0  0  0  0  0  0  0  0
   -6.8655    4.8824   28.1822 C   0  0  0  0  0  0  0  0  0  0  0  0
  -10.8856    4.5824   25.6430 C   0  0  0  0  0  0  0  0  0  0  0  0
   -7.6664    5.7849   28.7962 N   0  0  0  0  0  0  0  0  0  0  0  0
   -8.8934    5.5511   27.9459 C   0  0  0  0  0  0  0  0  0  0  0  0
  -11.7566    4.0567   24.6254 C   0  0  0  0  0  0  0  0  0  0  0  0
  -11.3129    2.8894   23.9740 C   0  0  0  0  0  0  0  0  0  0  0  0
  -10.1595    2.2702   24.3585 C   0  0  0  0  0  0  0  0  0  0  0  0
   -9.3211    2.7782   25.3932 C   0  0  0  0  0  0  0  0  0  0  0  0
  -12.1753    2.3386   22.9344 C   0  0  0  0  0  0  0  0  0  0  0  0
  -13.2488    1.7754   23.0611 C   0  0  0  0  0  0  0  0  0  0  0  0
  -13.7163    1.6194   24.4310 C   0  0  0  0  0  0  0  0  0  0  0  0
  -15.0304    0.9679   24.6495 C   0  0  0  0  0  0  0  0  0  0  0  0
  -15.4831    0.7603   25.9567 C   0  0  0  0  0  0  0  0  0  0  0  0
  -14.6936    1.2365   27.0444 C   0  0  0  0  0  0  0  0  0  0  0  0
  -13.4519    1.8514   26.8213 C   0  0  0  0  0  0  0  0  0  0  0  0
  -13.0158    2.0187   25.6309 C   0  0  0  0  0  0  0  0  0  0  0  0
  -11.4834    2.5106   21.5832 C   0  0  0  0  0  0  0  0  0  0  0  0
  -11.7882    1.9796   20.5889 C   0  0  0  0  0  0  0  0  0  0  0  0
  -10.3619    3.4885   21.5296 C   0  0  0  0  0  0  0  0  0  0  0  0
  -12.7038    2.2484   28.0787 C   0  0  0  0  0  0  0  0  0  0  0  0
  -11.4048    1.7323   28.2492 C   0  0  0  0  0  0  0  0  0  0  0  0
  -13.2490    3.2123   28.9421 C   0  0  0  0  0  0  0  0  0  0  0  0
  1  2  1  0
  1  4  1  0
  4  6  2  0
  2  7  1  0
  6  7  1  0
  9 12  1  0
 12 13  2  3
 13 14  1  0
 12 20  1  0
 20 21  2  0
 20 22  1  0
 18 23  1  0
 23 24  2  0
 23 25  1  0
  2  3  1  6
 14 15  2  0
 15 16  1  0
 16 17  2  0
 17 18  1  0
 18 19  2  0
 19 14  1  0
  3  5  2  0
  5  8  1  0
  8  9  2  0
  9 10  1  0
 10 11  2  0
 11  3  1  0
M  END
$$$$
