No_3525-complexes_sdf/6BKW-FPZ/2024-09-17-14-21-01/
     RDKit          3D

 27 28  0  0  0  0  0  0  0  0999 V2000
   -7.2496    3.8871   27.4508 C   0  0  0  0  0  0  0  0  0  0  0  0
   -8.5096    4.0291   27.2770 C   0  0  0  0  0  0  0  0  0  0  0  0
   -9.3451    2.8786   26.9046 C   0  0  0  0  0  0  0  0  0  0  0  0
   -8.7138    1.7135   26.7541 C   0  0  0  0  0  0  0  0  0  0  0  0
   -6.6024    2.6286   27.4581 C   0  0  0  0  0  0  0  0  0  0  0  0
   -7.3557    1.5598   27.1381 C   0  0  0  0  0  0  0  0  0  0  0  0
   -9.1549    5.3630   27.3415 C   0  0  0  0  0  0  0  0  0  0  0  0
   -8.3364    6.5089   27.1416 C   0  0  0  0  0  0  0  0  0  0  0  0
   -8.7280    7.6334   26.3089 C   0  0  0  0  0  0  0  0  0  0  0  0
   -6.6980    0.2492   27.0252 C   0  0  0  0  0  0  0  0  0  0  0  0
   -6.8760   -0.5571   26.3211 O   0  0  0  0  0  0  0  0  0  0  0  0
   -5.6802    0.0817   27.9945 O   0  0  0  0  0  0  0  0  0  0  0  0
   -5.3899   -1.0924   28.5479 C   0  0  0  0  0  0  0  0  0  0  0  0
   -4.6888   -0.8186   29.6814 C   0  0  0  0  0  0  0  0  0  0  0  0
   -4.7792   -1.5842   30.8621 C   0  0  0  0  0  0  0  0  0  0  0  0
   -4.0455   -1.2083   32.0684 C   0  0  0  0  0  0  0  0  0  0  0  0
   -3.7332    0.3112   29.9632 C   0  0  0  0  0  0  0  0  0  0  0  0
   -3.1580   -0.2286   32.1592 C   0  0  0  0  0  0  0  0  0  0  0  0
   -3.0139    0.5617   31.0698 C   0  0  0  0  0  0  0  0  0  0  0  0
   -2.2347    0.0799   33.5865 Cl  0  0  0  0  0  0  0  0  0  0  0  0
   -7.1174    6.6500   27.8796 C   0  0  0  0  0  0  0  0  0  0  0  0
  -10.7301    3.0270   26.5814 C   0  0  0  0  0  0  0  0  0  0  0  0
  -11.5992    1.9981   26.8698 C   0  0  0  0  0  0  0  0  0  0  0  0
  -12.1761    1.8599   27.7329 C   0  0  0  0  0  0  0  0  0  0  0  0
  -12.9616    0.6449   28.2195 C   0  0  0  0  0  0  0  0  0  0  0  0
  -12.9217   -0.3997   27.3357 C   0  0  0  0  0  0  0  0  0  0  0  0
  -12.1859   -0.3080   26.2017 C   0  0  0  0  0  0  0  0  0  0  0  0
  2  7  1  0
  7  8  1  0
  8  9  1  0
  6 10  1  0
 10 11  2  0
 10 12  1  0
 12 13  1  0
 18 20  1  0
  8 21  1  0
  3 22  1  0
 22 23  3  0
 23 24  1  0
 24 25  2  3
 25 26  1  0
 26 27  2  0
 13 14  1  0
  1  2  2  0
  2  3  1  0
  3  4  2  0
  4  6  1  0
  6  5  2  0
  5  1  1  0
 14 15  2  0
 15 16  1  0
 16 18  2  0
 18 19  1  0
 19 17  2  0
 17 14  1  0
M  END
$$$$
