No_3176-complexes_sdf/6BKW-FPZ/2024-09-17-14-21-01/
     RDKit          3D

 28 31  0  0  0  0  0  0  0  0999 V2000
   -7.9040    3.9820   27.1177 C   0  0  0  0  0  0  0  0  0  0  0  0
   -7.8663    4.8694   27.9238 C   0  0  0  0  0  0  0  0  0  0  0  0
   -7.4547    2.7080   27.4594 C   0  0  0  0  0  0  0  0  0  0  0  0
   -7.9337    1.5946   26.8372 C   0  0  0  0  0  0  0  0  0  0  0  0
   -8.9032    1.7881   25.8510 C   0  0  0  0  0  0  0  0  0  0  0  0
   -9.3787    2.9871   25.5530 C   0  0  0  0  0  0  0  0  0  0  0  0
   -8.9781    4.0300   26.2200 C   0  0  0  0  0  0  0  0  0  0  0  0
   -8.2132    6.2312   27.6173 N   0  0  0  0  0  0  0  0  0  0  0  0
   -9.1014    6.5119   26.6241 C   0  0  0  0  0  0  0  0  0  0  0  0
   -9.5143    5.3947   25.8857 C   0  0  0  0  0  0  0  0  0  0  0  0
   -7.3356    0.2566   27.1267 C   0  0  0  0  0  0  0  0  0  0  0  0
   -6.0719    0.1269   27.6413 C   0  0  0  0  0  0  0  0  0  0  0  0
   -5.5377   -1.1200   27.9825 C   0  0  0  0  0  0  0  0  0  0  0  0
   -4.2389   -1.1999   28.5858 C   0  0  0  0  0  0  0  0  0  0  0  0
   -3.4690   -0.0204   28.7727 C   0  0  0  0  0  0  0  0  0  0  0  0
   -4.0416    1.2239   28.4492 C   0  0  0  0  0  0  0  0  0  0  0  0
   -5.2718    1.3218   27.9221 C   0  0  0  0  0  0  0  0  0  0  0  0
   -8.1289   -0.8880   26.8694 C   0  0  0  0  0  0  0  0  0  0  0  0
   -8.1135   -1.4887   25.6562 C   0  0  0  0  0  0  0  0  0  0  0  0
   -7.2998   -1.5044   24.7730 C   0  0  0  0  0  0  0  0  0  0  0  0
   -7.3824   -2.0206   23.4373 C   0  0  0  0  0  0  0  0  0  0  0  0
   -8.5828   -2.6456   23.1492 C   0  0  0  0  0  0  0  0  0  0  0  0
   -9.3494   -2.2106   25.2887 C   0  0  0  0  0  0  0  0  0  0  0  0
   -9.5248   -2.7455   24.0559 C   0  0  0  0  0  0  0  0  0  0  0  0
   -8.8265   -1.3070   27.8957 O   0  0  0  0  0  0  0  0  0  0  0  0
  -10.8108   -3.3911   23.8635 C   0  0  0  0  0  0  0  0  0  0  0  0
  -11.8693   -3.2586   23.8515 C   0  0  0  0  0  0  0  0  0  0  0  0
  -12.9699   -3.5904   23.7473 C   0  0  0  0  0  0  0  0  0  0  0  0
  4 11  1  0
 11 18  1  0
 18 19  1  0
 18 25  2  0
 24 26  1  0
 26 27  2  3
 27 28  1  0
 11 12  1  0
 12 13  2  0
 13 14  1  0
 14 15  2  0
 15 16  1  0
 16 17  2  0
 17 12  1  0
  1  2  2  0
  2  8  1  0
  8  9  2  0
  9 10  1  0
 10  7  2  0
 19 20  2  0
 20 21  1  0
 21 22  2  0
 22 24  1  0
 24 23  2  0
 23 19  1  0
  1  3  1  0
  3  4  2  0
  4  5  1  0
  5  6  2  0
  6  7  1  0
  7  1  1  0
M  END
$$$$
