No_3920-complexes_sdf/6BKW-FPZ/2024-09-17-14-21-01/
     RDKit          3D

 15 15  0  0  0  0  0  0  0  0999 V2000
   -7.7129    4.2099   27.0854 C   0  0  0  0  0  0  0  0  0  0  0  0
   -8.2112    3.0637   26.9225 C   0  0  0  0  0  0  0  0  0  0  0  0
   -7.0021    4.5281   28.2396 C   0  0  0  0  0  0  0  0  0  0  0  0
   -7.5497    1.9016   27.4549 C   0  0  0  0  0  0  0  0  0  0  0  0
   -8.0831    0.6050   27.2852 C   0  0  0  0  0  0  0  0  0  0  0  0
   -7.4142   -0.4553   27.8488 C   0  0  0  0  0  0  0  0  0  0  0  0
   -9.3069    0.5013   26.5722 C   0  0  0  0  0  0  0  0  0  0  0  0
   -9.9592    1.5623   25.9803 C   0  0  0  0  0  0  0  0  0  0  0  0
   -9.3952    2.8326   26.1967 C   0  0  0  0  0  0  0  0  0  0  0  0
   -8.4149    5.3671   26.4760 C   0  0  0  0  0  0  0  0  0  0  0  0
   -8.1520    6.7445   26.9209 C   0  0  0  0  0  0  0  0  0  0  0  0
   -8.0828   -1.6028   28.3218 C   0  0  0  0  0  0  0  0  0  0  0  0
   -7.4307   -2.6262   28.9894 C   0  0  0  0  0  0  0  0  0  0  0  0
   -6.0847   -2.4707   29.2620 C   0  0  0  0  0  0  0  0  0  0  0  0
   -5.3605   -1.3843   28.8290 C   0  0  0  0  0  0  0  0  0  0  0  0
  1  2  1  0
  1  3  2  0
  2  4  1  0
  4  5  1  0
  5  6  2  3
  5  7  1  0
  7  8  1  0
  2  9  1  0
  8  9  1  0
  1 10  1  0
 10 11  1  0
  6 12  1  0
 12 13  1  0
 13 14  2  3
 14 15  1  0
M  END
$$$$
