No_3829-complexes_sdf/6BKW-FPZ/2024-09-17-14-21-01/
     RDKit          3D

 34 37  0  0  0  0  0  0  0  0999 V2000
   -7.7129    4.2099   27.0854 C   0  0  0  0  0  0  0  0  0  0  0  0
   -8.2112    3.0637   26.9225 C   0  0  0  0  0  0  0  0  0  0  0  0
   -7.5138    1.9223   27.4249 C   0  0  0  0  0  0  0  0  0  0  0  0
   -8.5309    5.4147   26.8151 C   0  0  0  0  0  0  0  0  0  0  0  0
   -9.6817    5.2393   26.1100 C   0  0  0  0  0  0  0  0  0  0  0  0
  -10.1032    3.9957   25.8534 C   0  0  0  0  0  0  0  0  0  0  0  0
   -9.4034    2.8430   26.2573 C   0  0  0  0  0  0  0  0  0  0  0  0
   -6.2445    2.0060   27.8662 N   0  0  0  0  0  0  0  0  0  0  0  0
   -7.8354    0.5699   27.0866 C   0  0  0  0  0  0  0  0  0  0  0  0
   -9.0072    0.1489   26.5458 C   0  0  0  0  0  0  0  0  0  0  0  0
   -5.7366    0.7655   28.1092 C   0  0  2  0  0  0  0  0  0  0  0  0
   -6.7066   -0.0964   27.7166 C   0  0  0  0  0  0  0  0  0  0  0  0
   -9.8731    1.3043   26.0533 C   0  0  0  0  0  0  0  0  0  0  0  0
   -4.4594    0.5304   28.7406 C   0  0  0  0  0  0  0  0  0  0  0  0
   -4.3280   -0.2571   29.8173 C   0  0  0  0  0  0  0  0  0  0  0  0
   -3.1188   -0.3850   30.5194 C   0  0  0  0  0  0  0  0  0  0  0  0
   -2.5563   -1.2619   30.8138 C   0  0  0  0  0  0  0  0  0  0  0  0
   -1.2182   -1.2091   31.4405 C   0  0  0  0  0  0  0  0  0  0  0  0
   -7.9858    6.7697   27.0883 C   0  0  2  0  0  0  0  0  0  0  0  0
   -6.8265    6.8225   28.1921 Cl  0  0  0  0  0  0  0  0  0  0  0  0
   -8.5001    7.9566   26.5441 C   0  0  0  0  0  0  0  0  0  0  0  0
   -3.0612   -2.6384   30.6472 C   0  0  0  0  0  0  0  0  0  0  0  0
   -4.2956   -2.7696   30.2014 C   0  0  0  0  0  0  0  0  0  0  0  0
   -5.0250   -1.5954   29.7409 C   0  0  0  0  0  0  0  0  0  0  0  0
   -1.3072   -1.1121   32.8648 O   0  0  0  0  0  0  0  0  0  0  0  0
   -3.4983    1.3695   28.3445 O   0  0  0  0  0  0  0  0  0  0  0  0
  -11.1038    1.1066   25.3576 C   0  0  0  0  0  0  0  0  0  0  0  0
  -10.9087    0.3726   24.4244 F   0  0  0  0  0  0  0  0  0  0  0  0
  -11.9511    0.5412   26.2828 F   0  0  0  0  0  0  0  0  0  0  0  0
  -11.7551    2.1836   24.9276 F   0  0  0  0  0  0  0  0  0  0  0  0
   -2.3410   -0.7496   33.4866 C   0  0  0  0  0  0  0  0  0  0  0  0
   -2.1153   -0.8855   35.0090 C   0  0  0  0  0  0  0  0  0  0  0  0
   -2.0822   -2.0295   35.3380 O   0  0  0  0  0  0  0  0  0  0  0  0
   -2.1024    0.1693   35.7503 O   0  0  0  0  0  0  0  0  0  0  0  0
  8 11  1  0
  9 12  1  0
 11 12  1  0
 11 14  1  1
 14 15  1  0
 17 18  1  0
  4 19  1  0
 19 20  1  0
 19 21  1  1
 18 25  1  0
 14 26  2  0
 13 27  1  0
 27 28  1  0
 27 29  1  0
 27 30  1  0
 25 31  1  0
 31 32  1  0
 32 33  2  0
 32 34  1  0
  8  3  1  0
 15 16  2  0
 16 17  1  0
 17 22  2  0
 22 23  1  0
 23 24  2  0
 24 15  1  0
  2  3  1  0
  3  9  2  0
  9 10  1  0
 10 13  2  0
 13  7  1  0
  1  2  2  0
  2  7  1  0
  7  6  2  0
  6  5  1  0
  5  4  2  0
  4  1  1  0
M  END
$$$$
