No_3909-complexes_sdf/6BKW-FPZ/2024-09-17-14-21-01/
     RDKit          3D

 39 43  0  0  0  0  0  0  0  0999 V2000
   -7.2496    3.8871   27.4508 C   0  0  0  0  0  0  0  0  0  0  0  0
   -8.5096    4.0291   27.2770 C   0  0  0  0  0  0  0  0  0  0  0  0
   -9.2669    5.1645   27.5845 C   0  0  0  0  0  0  0  0  0  0  0  0
  -10.6621    5.2321   27.4284 C   0  0  0  0  0  0  0  0  0  0  0  0
   -9.2831    2.8719   26.7564 C   0  0  0  0  0  0  0  0  0  0  0  0
   -8.5831    1.7059   26.4529 C   0  0  0  0  0  0  0  0  0  0  0  0
   -6.5244    2.6560   27.3972 C   0  0  0  0  0  0  0  0  0  0  0  0
   -7.2358    1.5939   26.8620 C   0  0  0  0  0  0  0  0  0  0  0  0
   -8.5926    6.4680   27.0564 C   0  0  0  0  0  0  0  0  0  0  0  0
   -4.9144    2.5294   27.8225 Cl  0  0  0  0  0  0  0  0  0  0  0  0
   -6.5502    0.3901   26.6880 N   0  0  0  0  0  0  0  0  0  0  0  0
   -6.9588   -0.6415   26.0194 C   0  0  0  0  0  0  0  0  0  0  0  0
   -6.0230   -1.6428   25.8797 C   0  0  0  0  0  0  0  0  0  0  0  0
   -5.4175   -2.0510   26.7568 C   0  0  0  0  0  0  0  0  0  0  0  0
   -4.9673   -1.0728   27.8285 C   0  0  1  0  0  0  0  0  0  0  0  0
   -5.7838    0.1520   27.9334 C   0  0  0  0  0  0  0  0  0  0  0  0
   -4.5816   -1.5823   29.2543 C   0  0  0  0  0  0  0  0  0  0  0  0
   -3.5473   -1.5094   29.6254 C   0  0  0  0  0  0  0  0  0  0  0  0
   -2.5320   -0.7272   28.9716 C   0  0  0  0  0  0  0  0  0  0  0  0
   -5.7779   -2.1476   29.8996 C   0  0  0  0  0  0  0  0  0  0  0  0
   -5.6562   -2.3380   31.2925 C   0  0  0  0  0  0  0  0  0  0  0  0
   -6.7337   -2.7523   32.0575 C   0  0  0  0  0  0  0  0  0  0  0  0
   -4.4187   -2.0806   31.9533 C   0  0  0  0  0  0  0  0  0  0  0  0
   -3.2506   -1.6275   31.1536 C   0  0  0  0  0  0  0  0  0  0  0  0
   -6.8422   -3.9983   32.4639 C   0  0  0  0  0  0  0  0  0  0  0  0
   -7.9381   -4.4089   33.2652 C   0  0  0  0  0  0  0  0  0  0  0  0
   -9.0084   -3.4837   33.5520 C   0  0  0  0  0  0  0  0  0  0  0  0
   -8.9614   -2.2073   32.9637 C   0  0  0  0  0  0  0  0  0  0  0  0
   -7.8474   -1.8181   32.3289 C   0  0  0  0  0  0  0  0  0  0  0  0
   -1.3934   -1.5146   28.4466 C   0  0  0  0  0  0  0  0  0  0  0  0
   -0.9933   -1.1517   27.1641 C   0  0  0  0  0  0  0  0  0  0  0  0
   -1.9260   -1.0912   26.2363 C   0  0  0  0  0  0  0  0  0  0  0  0
   -1.7005   -2.9459   28.5377 C   0  0  0  0  0  0  0  0  0  0  0  0
   -0.7351   -3.7193   28.1221 C   0  0  0  0  0  0  0  0  0  0  0  0
   -0.9838   -5.1883   28.1882 C   0  0  0  0  0  0  0  0  0  0  0  0
   -2.2281   -5.5982   28.5682 C   0  0  0  0  0  0  0  0  0  0  0  0
   -3.2158   -4.7249   28.9938 C   0  0  0  0  0  0  0  0  0  0  0  0
   -2.8874   -3.4446   29.0068 C   0  0  0  0  0  0  0  0  0  0  0  0
   -2.8124   -3.6534   30.1680 O   0  0  0  0  0  0  0  0  0  0  0  0
  2  3  1  0
  3  4  1  0
  3  9  1  0
  7 10  1  0
  8 11  1  0
 11 12  1  0
 12 13  1  0
 14 15  1  0
 11 16  1  0
 15 16  1  0
 15 17  1  1
 18 19  1  0
 21 22  1  0
 19 30  1  0
 30 31  2  3
 31 32  1  0
 30 33  1  0
 38 39  1  0
 13 14  1  0
 17 18  2  0
 18 24  1  0
 24 23  2  0
 23 21  1  0
 21 20  2  0
 20 17  1  0
 33 34  2  0
 34 35  1  0
 35 36  2  0
 36 37  1  0
 37 38  2  0
 38 33  1  0
 22 25  2  0
 25 26  1  0
 26 27  2  0
 27 28  1  0
 28 29  2  0
 29 22  1  0
  1  2  2  0
  2  5  1  0
  5  6  2  0
  6  8  1  0
  8  7  2  0
  7  1  1  0
M  END
$$$$
