No_3715-complexes_sdf/6BKW-FPZ/2024-09-17-14-21-01/
     RDKit          3D

 18 19  0  0  0  0  0  0  0  0999 V2000
   -7.2496    3.8871   27.4508 C   0  0  0  0  0  0  0  0  0  0  0  0
   -7.9379    4.9063   27.8518 C   0  0  0  0  0  0  0  0  0  0  0  0
   -9.3376    4.8647   27.7795 C   0  0  0  0  0  0  0  0  0  0  0  0
   -7.8544    2.6294   27.0414 C   0  0  0  0  0  0  0  0  0  0  0  0
   -7.2035    1.5022   26.7428 C   0  0  0  0  0  0  0  0  0  0  0  0
  -10.0282    3.7363   27.4999 C   0  0  0  0  0  0  0  0  0  0  0  0
   -9.2866    2.5941   27.1521 C   0  0  0  0  0  0  0  0  0  0  0  0
   -6.0966    1.0766   27.5552 C   0  0  0  0  0  0  0  0  0  0  0  0
   -5.5633    0.0490   27.6609 C   0  0  0  0  0  0  0  0  0  0  0  0
   -6.0576   -1.0026   26.8522 C   0  0  0  0  0  0  0  0  0  0  0  0
   -7.7669    0.4367   26.1008 C   0  0  0  0  0  0  0  0  0  0  0  0
   -7.1709   -0.7848   26.0762 C   0  0  0  0  0  0  0  0  0  0  0  0
  -11.4903    3.6238   27.6197 C   0  0  0  0  0  0  0  0  0  0  0  0
  -12.2390    3.9626   26.7262 C   0  0  0  0  0  0  0  0  0  0  0  0
  -11.8292    4.1469   25.3882 C   0  0  0  0  0  0  0  0  0  0  0  0
  -12.0210    3.4536   24.4509 C   0  0  0  0  0  0  0  0  0  0  0  0
  -11.3633    3.6233   23.1268 C   0  0  0  0  0  0  0  0  0  0  0  0
  -11.5642    2.8640   22.0062 C   0  0  0  0  0  0  0  0  0  0  0  0
  4  5  1  0
  6 13  1  0
 13 14  1  0
 14 15  1  0
 15 16  2  3
 16 17  1  0
 17 18  2  0
  1  2  2  0
  2  3  1  0
  3  6  2  0
  6  7  1  0
  7  4  2  0
  4  1  1  0
  5  8  2  0
  8  9  1  0
  9 10  2  0
 10 12  1  0
 12 11  2  0
 11  5  1  0
M  END
$$$$
