No_3763-complexes_sdf/6BKW-FPZ/2024-09-17-14-21-01/
     RDKit          3D

 20 22  0  0  0  0  0  0  0  0999 V2000
   -7.9040    3.9820   27.1177 C   0  0  0  0  0  0  0  0  0  0  0  0
   -8.2057    2.8231   26.8733 C   0  0  0  0  0  0  0  0  0  0  0  0
   -7.0130    4.3706   28.1140 C   0  0  0  0  0  0  0  0  0  0  0  0
   -7.4093    1.7370   27.3857 C   0  0  0  0  0  0  0  0  0  0  0  0
   -6.1943    2.1490   28.0403 C   0  0  0  0  0  0  0  0  0  0  0  0
   -5.9708    3.4680   28.3199 C   0  0  0  0  0  0  0  0  0  0  0  0
   -8.9048    5.0960   26.7137 C   0  0  0  0  0  0  0  0  0  0  0  0
   -9.5194    4.9927   25.4434 C   0  0  0  0  0  0  0  0  0  0  0  0
   -5.2450    1.0796   28.4383 C   0  0  0  0  0  0  0  0  0  0  0  0
   -5.5274   -0.1861   28.5037 N   0  0  0  0  0  0  0  0  0  0  0  0
   -6.2140   -0.8297   27.7674 C   0  0  0  0  0  0  0  0  0  0  0  0
   -5.3497   -0.7808   29.8971 C   0  0  0  0  0  0  0  0  0  0  0  0
   -8.9466    6.3631   27.3503 C   0  0  0  0  0  0  0  0  0  0  0  0
   -4.2274   -0.4244   30.6462 C   0  0  0  0  0  0  0  0  0  0  0  0
   -6.2114   -1.7337   30.3694 C   0  0  0  0  0  0  0  0  0  0  0  0
   -4.0904   -0.7903   31.9901 C   0  0  0  0  0  0  0  0  0  0  0  0
   -6.0263   -2.2316   31.7000 C   0  0  0  0  0  0  0  0  0  0  0  0
   -4.9611   -1.7845   32.5067 C   0  0  0  0  0  0  0  0  0  0  0  0
   -6.9518   -1.8022   27.9309 C   0  0  0  0  0  0  0  0  0  0  0  0
   -7.0680   -2.3466   29.4289 C   0  0  0  0  0  0  0  0  0  0  0  0
  1  7  1  0
  7  8  2  0
  5  9  1  0
  9 10  1  0
 10 11  1  0
 10 12  1  0
  7 13  1  0
 15 20  1  0
 19 20  1  0
 11 19  1  0
  1  2  2  0
  2  4  1  0
  4  5  2  0
  5  6  1  0
  6  3  2  0
  3  1  1  0
 12 14  2  0
 14 16  1  0
 16 18  2  0
 18 17  1  0
 17 15  2  0
 15 12  1  0
M  END
$$$$
