No_3522-complexes_sdf/6BKW-FPZ/2024-09-17-14-21-01/
     RDKit          3D

 22 24  0  0  0  0  0  0  0  0999 V2000
   -7.9040    3.9820   27.1177 C   0  0  0  0  0  0  0  0  0  0  0  0
   -9.0711    4.3164   27.0630 C   0  0  0  0  0  0  0  0  0  0  0  0
   -9.8698    3.9665   25.9495 C   0  0  0  0  0  0  0  0  0  0  0  0
   -7.0332    4.5030   28.2025 C   0  0  0  0  0  0  0  0  0  0  0  0
   -9.4357    2.9501   25.1393 C   0  0  0  0  0  0  0  0  0  0  0  0
   -8.2567    2.3218   25.4797 C   0  0  0  0  0  0  0  0  0  0  0  0
   -7.5105    2.7966   26.5752 C   0  0  0  0  0  0  0  0  0  0  0  0
  -10.2472    2.5204   24.0264 C   0  0  1  0  0  0  0  0  0  0  0  0
  -10.5935    3.4337   22.9918 C   0  0  2  0  0  0  0  0  0  0  0  0
  -10.5932    4.7741   23.2841 C   0  0  0  0  0  0  0  0  0  0  0  0
  -11.2645    2.9267   21.8590 C   0  0  0  0  0  0  0  0  0  0  0  0
   -7.3936    5.7017   28.7503 N   0  0  0  0  0  0  0  0  0  0  0  0
   -5.8802    4.1362   28.2860 O   0  0  0  0  0  0  0  0  0  0  0  0
  -11.2637    1.5981   21.5596 C   0  0  0  0  0  0  0  0  0  0  0  0
  -10.6902    0.6819   22.5303 C   0  0  0  0  0  0  0  0  0  0  0  0
  -10.1188    1.1289   23.6906 C   0  0  0  0  0  0  0  0  0  0  0  0
  -10.7286   -0.7601   22.1770 C   0  0  0  0  0  0  0  0  0  0  0  0
  -10.9477   -1.2031   21.1038 C   0  0  0  0  0  0  0  0  0  0  0  0
  -11.5130   -0.2646   20.0417 C   0  0  0  0  0  0  0  0  0  0  0  0
  -11.6064    1.0817   20.2954 C   0  0  0  0  0  0  0  0  0  0  0  0
  -11.6710    3.7331   20.9155 F   0  0  0  0  0  0  0  0  0  0  0  0
  -12.4227    3.2022   22.0565 F   0  0  0  0  0  0  0  0  0  0  0  0
  1  4  1  0
  8  5  1  6
  8  9  1  0
  9 11  1  0
  4 12  1  0
  4 13  2  0
 11 14  1  0
  8 16  1  0
 15 16  1  0
 11 21  1  0
 11 22  1  0
  9 10  1  1
 14 15  2  0
 15 17  1  0
 17 18  2  0
 18 19  1  0
 19 20  2  0
 20 14  1  0
  1  2  2  0
  2  3  1  0
  3  5  2  0
  5  6  1  0
  6  7  2  0
  7  1  1  0
M  END
$$$$
