No_3668-complexes_sdf/6BKW-FPZ/2024-09-17-14-21-01/
     RDKit          3D

 10 10  0  0  0  0  0  0  0  0999 V2000
   -7.9040    3.9820   27.1177 C   0  0  0  0  0  0  0  0  0  0  0  0
   -7.8663    4.8694   27.9238 C   0  0  0  0  0  0  0  0  0  0  0  0
   -7.4547    2.7080   27.4594 C   0  0  0  0  0  0  0  0  0  0  0  0
   -6.1474    2.6388   27.8014 C   0  0  0  0  0  0  0  0  0  0  0  0
   -8.5539    6.1392   27.6636 C   0  0  0  0  0  0  0  0  0  0  0  0
   -8.9152    4.0957   26.1018 C   0  0  0  0  0  0  0  0  0  0  0  0
   -9.5561    5.2975   25.8155 C   0  0  0  0  0  0  0  0  0  0  0  0
   -9.3180    6.3765   26.6566 C   0  0  0  0  0  0  0  0  0  0  0  0
   -5.4286    1.4063   28.0121 C   0  0  0  0  0  0  0  0  0  0  0  0
   -6.1268    0.2254   27.8834 C   0  0  0  0  0  0  0  0  0  0  0  0
  3  4  1  0
  4  9  2  3
  9 10  1  0
  3  1  1  0
  1  2  2  0
  2  5  1  0
  5  8  2  0
  8  7  1  0
  7  6  2  0
  6  1  1  0
M  END
$$$$
