No_3869-complexes_sdf/6BKW-FPZ/2024-09-17-14-21-01/
     RDKit          3D

 32 35  0  0  0  0  0  0  0  0999 V2000
   -7.2496    3.8871   27.4508 C   0  0  0  0  0  0  0  0  0  0  0  0
   -7.9379    4.9063   27.8518 C   0  0  0  0  0  0  0  0  0  0  0  0
   -9.3460    4.8223   27.8695 C   0  0  0  0  0  0  0  0  0  0  0  0
   -7.8628    2.6163   27.1065 C   0  0  0  0  0  0  0  0  0  0  0  0
   -9.2787    2.5744   27.1970 C   0  0  0  0  0  0  0  0  0  0  0  0
  -10.0108    3.6770   27.6340 C   0  0  0  0  0  0  0  0  0  0  0  0
  -11.4487    3.3729   27.7139 C   0  0  0  0  0  0  0  0  0  0  0  0
  -12.3457    4.0577   27.9549 C   0  0  0  0  0  0  0  0  0  0  0  0
  -13.7388    3.8000   28.1272 C   0  0  0  0  0  0  0  0  0  0  0  0
  -14.0890    2.5168   27.8621 C   0  0  0  0  0  0  0  0  0  0  0  0
  -12.0979    2.0060   27.6137 C   0  0  0  0  0  0  0  0  0  0  0  0
  -13.2497    1.6197   27.7038 C   0  0  0  0  0  0  0  0  0  0  0  0
   -6.9468    1.2865   26.7139 Cl  0  0  0  0  0  0  0  0  0  0  0  0
   -7.3615    6.0506   28.0986 F   0  0  0  0  0  0  0  0  0  0  0  0
  -15.4724    2.2239   28.0069 F   0  0  0  0  0  0  0  0  0  0  0  0
  -14.6464    4.8625   28.3482 O   0  0  0  0  0  0  0  0  0  0  0  0
  -14.8317    5.3244   29.5580 C   0  0  0  0  0  0  0  0  0  0  0  0
  -15.7978    6.4321   29.6077 C   0  0  0  0  0  0  0  0  0  0  0  0
  -14.5184    4.6339   30.7151 C   0  0  0  0  0  0  0  0  0  0  0  0
  -14.8664    5.0915   31.9896 C   0  0  0  0  0  0  0  0  0  0  0  0
  -16.1781    6.8852   30.9070 C   0  0  0  0  0  0  0  0  0  0  0  0
  -15.7443    6.2058   32.0342 C   0  0  0  0  0  0  0  0  0  0  0  0
  -14.4178    4.3818   33.1766 C   0  0  0  0  0  0  0  0  0  0  0  0
  -13.4371    4.9503   33.8533 C   0  0  0  0  0  0  0  0  0  0  0  0
  -12.7875    4.3809   35.0298 C   0  0  0  0  0  0  0  0  0  0  0  0
  -11.7351    4.9481   35.7743 C   0  0  0  0  0  0  0  0  0  0  0  0
  -13.2534    3.0375   35.3148 C   0  0  0  0  0  0  0  0  0  0  0  0
  -14.2411    2.4309   34.5672 C   0  0  0  0  0  0  0  0  0  0  0  0
  -14.7916    3.0918   33.4702 C   0  0  0  0  0  0  0  0  0  0  0  0
  -11.6608    5.9903   35.7181 F   0  0  0  0  0  0  0  0  0  0  0  0
  -11.9461    4.5083   37.1031 F   0  0  0  0  0  0  0  0  0  0  0  0
  -10.5378    4.4333   35.3212 F   0  0  0  0  0  0  0  0  0  0  0  0
  6  7  1  0
  4 13  1  0
  2 14  1  0
 10 15  1  0
  9 16  1  0
 16 17  1  0
 20 23  1  0
 25 26  1  0
 26 30  1  0
 26 31  1  0
 26 32  1  0
  7  8  2  0
  8  9  1  0
  9 10  2  0
 10 12  1  0
 12 11  2  0
 11  7  1  0
  1  2  2  0
  2  3  1  0
  3  6  2  0
  6  5  1  0
  5  4  2  0
  4  1  1  0
 17 18  2  0
 18 21  1  0
 21 22  2  0
 22 20  1  0
 20 19  2  0
 19 17  1  0
 23 24  2  0
 24 25  1  0
 25 27  2  0
 27 28  1  0
 28 29  2  0
 29 23  1  0
M  END
$$$$
