No_3915-complexes_sdf/6BKW-FPZ/2024-09-17-14-21-01/
     RDKit          3D

 26 28  0  0  0  0  0  0  0  0999 V2000
   -7.7129    4.2099   27.0854 C   0  0  0  0  0  0  0  0  0  0  0  0
   -8.9133    4.4736   27.0998 C   0  0  0  0  0  0  0  0  0  0  0  0
   -9.8363    3.8127   27.2418 C   0  0  0  0  0  0  0  0  0  0  0  0
   -7.2995    2.8520   27.3808 C   0  0  0  0  0  0  0  0  0  0  0  0
   -8.3404    1.9507   27.4989 C   0  0  0  0  0  0  0  0  0  0  0  0
   -9.6166    2.3791   27.4719 C   0  0  0  0  0  0  0  0  0  0  0  0
   -9.2099    6.3290   26.8671 P   0  0  0  0  0  0  0  0  0  0  0  0
   -9.7301    6.8148   28.0404 O   0  0  0  0  0  0  0  0  0  0  0  0
   -7.7410    6.8093   26.6219 O   0  0  0  0  0  0  0  0  0  0  0  0
   -9.7634    6.3370   25.5283 O   0  0  0  0  0  0  0  0  0  0  0  0
   -8.0333    0.5013   27.7236 C   0  0  0  0  0  0  0  0  0  0  0  0
   -6.7169    0.0645   27.7614 C   0  0  0  0  0  0  0  0  0  0  0  0
   -6.4139   -1.2780   27.9987 C   0  0  0  0  0  0  0  0  0  0  0  0
   -7.5088   -2.1390   28.0943 C   0  0  0  0  0  0  0  0  0  0  0  0
   -8.8467   -0.6514   27.8819 C   0  0  0  0  0  0  0  0  0  0  0  0
   -8.7116   -1.8208   28.1322 C   0  0  0  0  0  0  0  0  0  0  0  0
   -9.7638   -2.6535   28.3047 O   0  0  0  0  0  0  0  0  0  0  0  0
  -10.8018   -2.6436   28.4059 C   0  0  2  0  0  0  0  0  0  0  0  0
  -11.3531   -2.0055   29.4834 C   0  0  0  0  0  0  0  0  0  0  0  0
  -11.6456   -2.5374   30.5771 C   0  0  0  0  0  0  0  0  0  0  0  0
  -10.9074   -3.5864   31.0371 C   0  0  0  0  0  0  0  0  0  0  0  0
  -11.1084   -4.0870   32.4028 C   0  0  0  0  0  0  0  0  0  0  0  0
  -12.0650   -3.3838   33.2027 C   0  0  0  0  0  0  0  0  0  0  0  0
  -12.7471   -2.2933   32.7748 C   0  0  0  0  0  0  0  0  0  0  0  0
  -12.4949   -1.8021   31.5100 C   0  0  0  0  0  0  0  0  0  0  0  0
  -11.6911   -3.3865   27.6053 C   0  0  0  0  0  0  0  0  0  0  0  0
  2  7  1  0
  7  8  1  0
  7  9  1  0
  7 10  2  0
  5 11  1  0
 16 17  1  0
 17 18  1  0
 18 19  1  0
 18 26  1  1
 19 20  1  0
  1  2  2  0
  2  3  1  0
  3  6  2  0
  6  5  1  0
  5  4  2  0
  4  1  1  0
 20 21  2  0
 21 22  1  0
 22 23  2  0
 23 24  1  0
 24 25  2  0
 25 20  1  0
 11 12  2  0
 12 13  1  0
 13 14  2  0
 14 16  1  0
 16 15  2  0
 15 11  1  0
M  END
$$$$
