No_3122-complexes_sdf/6BKW-FPZ/2024-09-17-14-21-01/
     RDKit          3D

 15 16  0  0  0  0  0  0  0  0999 V2000
   -7.7129    4.2099   27.0854 C   0  0  0  0  0  0  0  0  0  0  0  0
   -8.9133    4.4736   27.0998 C   0  0  0  0  0  0  0  0  0  0  0  0
   -9.4616    5.6470   27.6290 C   0  0  0  0  0  0  0  0  0  0  0  0
   -6.8722    5.1130   27.9248 C   0  0  0  0  0  0  0  0  0  0  0  0
   -7.3801    6.2535   28.4126 C   0  0  0  0  0  0  0  0  0  0  0  0
   -8.6734    6.5530   28.2150 C   0  0  0  0  0  0  0  0  0  0  0  0
   -9.7626    3.4440   26.3353 C   0  0  0  0  0  0  0  0  0  0  0  0
  -10.4758    3.6852   25.4323 C   0  0  0  0  0  0  0  0  0  0  0  0
  -11.0797    2.9897   24.5563 C   0  0  0  0  0  0  0  0  0  0  0  0
  -10.9209    1.5912   24.6558 C   0  0  0  0  0  0  0  0  0  0  0  0
   -9.3695    2.1035   26.2457 C   0  0  0  0  0  0  0  0  0  0  0  0
   -9.9492    1.1860   25.5272 C   0  0  0  0  0  0  0  0  0  0  0  0
   -9.6039   -0.2771   25.6106 C   0  0  0  0  0  0  0  0  0  0  0  0
  -10.1164   -1.0109   26.2392 C   0  0  0  0  0  0  0  0  0  0  0  0
   -9.6940   -2.4220   26.4303 C   0  0  0  0  0  0  0  0  0  0  0  0
  2  7  1  0
 12 13  1  0
 13 14  2  3
 14 15  1  0
  7  8  2  0
  8  9  1  0
  9 10  2  0
 10 12  1  0
 12 11  2  0
 11  7  1  0
  1  2  2  0
  2  3  1  0
  3  6  2  0
  6  5  1  0
  5  4  2  0
  4  1  1  0
M  END
$$$$
