No_3814-complexes_sdf/6BKW-FPZ/2024-09-17-14-21-01/
     RDKit          3D

 15 17  0  0  0  0  0  0  0  0999 V2000
   -7.9040    3.9820   27.1177 C   0  0  0  0  0  0  0  0  0  0  0  0
   -7.8663    4.8694   27.9238 C   0  0  0  0  0  0  0  0  0  0  0  0
   -9.0501    3.8017   26.2617 C   0  0  0  0  0  0  0  0  0  0  0  0
  -10.0189    4.7608   26.3707 C   0  0  0  0  0  0  0  0  0  0  0  0
   -8.6973    5.9722   27.8968 C   0  0  0  0  0  0  0  0  0  0  0  0
   -9.8216    5.8946   27.1241 C   0  0  0  0  0  0  0  0  0  0  0  0
   -8.9593    2.5739   25.4531 C   0  0  0  0  0  0  0  0  0  0  0  0
   -8.6428    1.3881   26.0819 C   0  0  0  0  0  0  0  0  0  0  0  0
   -8.2908    1.3786   27.3182 C   0  0  0  0  0  0  0  0  0  0  0  0
   -7.5378    2.6499   27.8490 C   0  0  0  0  0  0  0  0  0  0  0  0
   -9.9112    2.6333   24.0547 Cl  0  0  0  0  0  0  0  0  0  0  0  0
   -8.8498    0.1427   25.3297 C   0  0  0  0  0  0  0  0  0  0  0  0
   -8.4253   -0.9857   25.7596 C   0  0  0  0  0  0  0  0  0  0  0  0
   -8.1033   -1.2086   26.8313 C   0  0  0  0  0  0  0  0  0  0  0  0
   -7.7524    0.0352   27.7817 C   0  0  0  0  0  0  0  0  0  0  0  0
  3  7  1  0
  7  8  1  0
  1 10  1  0
  9 10  1  0
  7 11  1  0
  8  9  2  0
  9 15  1  0
 15 14  2  0
 14 13  1  0
 13 12  2  0
 12  8  1  0
  1  2  2  0
  2  5  1  0
  5  6  2  0
  6  4  1  0
  4  3  2  0
  3  1  1  0
M  END
$$$$
