No_3064-complexes_sdf/6BKW-FPZ/2024-09-17-14-21-01/
     RDKit          3D

 40 43  0  0  0  0  0  0  0  0999 V2000
   -7.9040    3.9820   27.1177 C   0  0  0  0  0  0  0  0  0  0  0  0
   -9.0711    4.3164   27.0630 C   0  0  0  0  0  0  0  0  0  0  0  0
   -9.9692    3.7224   26.1073 C   0  0  0  0  0  0  0  0  0  0  0  0
   -6.9787    4.6761   28.1003 C   0  0  0  0  0  0  0  0  0  0  0  0
   -9.4538    2.6801   25.3673 C   0  0  0  0  0  0  0  0  0  0  0  0
  -10.3254    2.0814   24.4116 C   0  0  0  0  0  0  0  0  0  0  0  0
   -7.6866    5.6501   28.7111 N   0  0  0  0  0  0  0  0  0  0  0  0
   -8.9962    5.6184   28.0573 C   0  0  0  0  0  0  0  0  0  0  0  0
  -11.5456    2.6957   24.1135 C   0  0  0  0  0  0  0  0  0  0  0  0
  -11.9743    3.7981   24.8440 C   0  0  0  0  0  0  0  0  0  0  0  0
  -11.1832    4.3837   25.8306 C   0  0  0  0  0  0  0  0  0  0  0  0
   -9.8852    0.9103   23.6528 C   0  0  0  0  0  0  0  0  0  0  0  0
  -10.0155    0.8285   22.3989 C   0  0  0  0  0  0  0  0  0  0  0  0
   -9.5139   -0.3169   21.6271 C   0  0  0  0  0  0  0  0  0  0  0  0
   -8.7667   -1.2704   22.3112 C   0  0  0  0  0  0  0  0  0  0  0  0
   -8.5248   -1.1353   23.6463 C   0  0  0  0  0  0  0  0  0  0  0  0
   -9.0141   -0.0663   24.3682 C   0  0  0  0  0  0  0  0  0  0  0  0
   -5.7528    4.3621   28.3884 N   0  0  0  0  0  0  0  0  0  0  0  0
   -8.2573   -2.4130   21.5217 C   0  0  2  0  0  0  0  0  0  0  0  0
   -6.6931   -2.7671   21.4927 Cl  0  0  0  0  0  0  0  0  0  0  0  0
   -9.1088   -3.1968   20.6889 C   0  0  2  0  0  0  0  0  0  0  0  0
  -10.1776   -3.5239   20.8618 C   0  0  0  0  0  0  0  0  0  0  0  0
  -10.7074   -3.5373   22.1741 C   0  0  0  0  0  0  0  0  0  0  0  0
  -10.3372   -4.4721   23.0202 C   0  0  0  0  0  0  0  0  0  0  0  0
  -10.9473   -4.5785   24.3390 C   0  0  0  0  0  0  0  0  0  0  0  0
  -11.9672   -3.6621   24.6655 C   0  0  0  0  0  0  0  0  0  0  0  0
  -12.4141   -2.7224   23.7611 C   0  0  0  0  0  0  0  0  0  0  0  0
  -11.7938   -2.6233   22.5146 C   0  0  0  0  0  0  0  0  0  0  0  0
  -13.4666   -1.7441   24.1285 C   0  0  0  0  0  0  0  0  0  0  0  0
  -14.3961   -2.1192   24.4750 O   0  0  0  0  0  0  0  0  0  0  0  0
  -13.1133   -0.4542   23.9816 O   0  0  0  0  0  0  0  0  0  0  0  0
  -11.0917   -3.8409   19.9657 O   0  0  0  0  0  0  0  0  0  0  0  0
   -8.2429   -4.0437   19.4799 Cl  0  0  0  0  0  0  0  0  0  0  0  0
  -10.4644   -5.5132   25.3436 C   0  0  0  0  0  0  0  0  0  0  0  0
  -10.7931   -6.6544   25.3496 O   0  0  0  0  0  0  0  0  0  0  0  0
   -9.8807   -4.9459   26.4185 O   0  0  0  0  0  0  0  0  0  0  0  0
  -13.4996    4.4841   24.5359 Cl  0  0  0  0  0  0  0  0  0  0  0  0
   -7.8433   -2.0122   24.3449 F   0  0  0  0  0  0  0  0  0  0  0  0
   -9.1955   -5.4444   27.1904 C   0  0  0  0  0  0  0  0  0  0  0  0
   -8.1865   -4.5904   27.7286 C   0  0  0  0  0  0  0  0  0  0  0  0
  1  2  2  0
  2  3  1  0
  1  4  1  0
  4  7  2  0
  2  8  1  0
  7  8  1  0
  6 12  1  0
  4 18  1  0
 15 19  1  0
 19 20  1  6
 19 21  1  0
 21 22  1  0
 22 23  1  0
 27 29  1  0
 29 30  2  0
 29 31  1  0
 22 32  2  0
 21 33  1  1
 25 34  1  0
 34 35  2  0
 34 36  1  0
 10 37  1  0
 16 38  1  0
 36 39  1  0
 39 40  1  0
 12 13  2  0
 13 14  1  0
 14 15  2  0
 15 16  1  0
 16 17  2  0
 17 12  1  0
 23 24  2  0
 24 25  1  0
 25 26  2  0
 26 27  1  0
 27 28  2  0
 28 23  1  0
  3  5  2  0
  5  6  1  0
  6  9  2  0
  9 10  1  0
 10 11  2  0
 11  3  1  0
M  END
$$$$
