No_3881-complexes_sdf/6BKW-FPZ/2024-09-17-14-21-01/
     RDKit          3D

 18 20  0  0  0  0  0  0  0  0999 V2000
   -7.9040    3.9820   27.1177 C   0  0  0  0  0  0  0  0  0  0  0  0
   -8.2057    2.8231   26.8733 C   0  0  0  0  0  0  0  0  0  0  0  0
   -7.4766    1.7477   27.4593 C   0  0  0  0  0  0  0  0  0  0  0  0
   -8.7468    5.1251   26.6967 C   0  0  0  0  0  0  0  0  0  0  0  0
   -8.4775    6.4967   27.1056 C   0  0  0  0  0  0  0  0  0  0  0  0
   -7.7864    0.3940   27.2703 C   0  0  0  0  0  0  0  0  0  0  0  0
   -9.0192    0.1650   26.6014 C   0  0  0  0  0  0  0  0  0  0  0  0
   -9.7483    1.1632   26.0299 C   0  0  0  0  0  0  0  0  0  0  0  0
   -9.3657    2.4698   26.1975 C   0  0  0  0  0  0  0  0  0  0  0  0
   -7.2335    6.7030   27.7647 C   0  0  0  0  0  0  0  0  0  0  0  0
   -6.9143    4.7325   27.9018 N   0  0  0  0  0  0  0  0  0  0  0  0
   -6.6355    5.8356   28.3156 C   0  0  0  0  0  0  0  0  0  0  0  0
   -9.4280   -1.2653   26.4375 C   0  0  0  0  0  0  0  0  0  0  0  0
  -10.4909   -1.5184   26.2261 C   0  0  0  0  0  0  0  0  0  0  0  0
  -10.9826   -2.9177   26.0602 C   0  0  0  0  0  0  0  0  0  0  0  0
  -10.0527   -3.8890   26.2696 C   0  0  0  0  0  0  0  0  0  0  0  0
   -8.7857   -3.5996   26.5854 C   0  0  0  0  0  0  0  0  0  0  0  0
   -8.3626   -2.2634   26.7460 C   0  0  0  0  0  0  0  0  0  0  0  0
  7 13  1  0
  2  1  1  0
 13 14  2  0
 14 15  1  0
 15 16  2  0
 16 17  1  0
 17 18  2  0
 18 13  1  0
  2  3  2  0
  3  6  1  0
  6  7  2  0
  7  8  1  0
  8  9  2  0
  9  2  1  0
  1  4  2  0
  4  5  1  0
  5 10  2  0
 10 12  1  0
 12 11  2  0
 11  1  1  0
M  END
$$$$
