No_3050-complexes_sdf/6BKW-FPZ/2024-09-17-14-21-01/
     RDKit          3D

 15 16  0  0  0  0  0  0  0  0999 V2000
   -7.9040    3.9820   27.1177 C   0  0  0  0  0  0  0  0  0  0  0  0
   -8.2057    2.8231   26.8733 C   0  0  0  0  0  0  0  0  0  0  0  0
   -9.2962    2.4021   26.1155 C   0  0  0  0  0  0  0  0  0  0  0  0
   -8.7358    5.0662   26.5917 C   0  0  0  0  0  0  0  0  0  0  0  0
   -9.7618    4.7023   25.7546 C   0  0  0  0  0  0  0  0  0  0  0  0
  -10.0066    3.4105   25.4922 C   0  0  0  0  0  0  0  0  0  0  0  0
   -8.3936    6.4769   26.8843 C   0  0  0  0  0  0  0  0  0  0  0  0
   -8.0596    6.8026   28.2082 C   0  0  0  0  0  0  0  0  0  0  0  0
   -8.5406    7.4550   25.9076 C   0  0  0  0  0  0  0  0  0  0  0  0
   -7.3559    1.6546   27.4783 C   0  0  0  0  0  0  0  0  0  0  0  0
   -7.7512    0.4022   27.3954 N   0  0  0  0  0  0  0  0  0  0  0  0
   -6.9125   -0.5419   27.8134 C   0  0  0  0  0  0  0  0  0  0  0  0
   -5.6664   -0.1544   28.2855 C   0  0  0  0  0  0  0  0  0  0  0  0
   -5.9826    1.7625   27.8878 C   0  0  0  0  0  0  0  0  0  0  0  0
   -5.2757    0.8467   28.2645 C   0  0  0  0  0  0  0  0  0  0  0  0
  4  7  1  0
  7  8  2  0
  7  9  1  0
  2 10  1  0
  1  2  2  0
  2  3  1  0
  3  6  2  0
  6  5  1  0
  5  4  2  0
  4  1  1  0
 10 11  2  0
 11 12  1  0
 12 13  2  0
 13 15  1  0
 15 14  2  0
 14 10  1  0
M  END
$$$$
