No_319-complexes_sdf/6BKW-FPZ/2024-09-17-14-21-01/
     RDKit          3D

 14 16  0  0  0  0  0  0  0  0999 V2000
   -7.2496    3.8871   27.4508 C   0  0  0  0  0  0  0  0  0  0  0  0
   -8.5096    4.0291   27.2770 C   0  0  0  0  0  0  0  0  0  0  0  0
   -9.2677    5.1714   27.5773 C   0  0  0  0  0  0  0  0  0  0  0  0
   -9.2765    2.8248   26.8371 C   0  0  0  0  0  0  0  0  0  0  0  0
  -10.4623    3.0171   26.3236 C   0  0  0  0  0  0  0  0  0  0  0  0
  -10.8972    2.6250   25.3350 C   0  0  0  0  0  0  0  0  0  0  0  0
  -12.2133    2.9588   24.7026 C   0  0  0  0  0  0  0  0  0  0  0  0
   -8.5061    6.3501   27.9961 C   0  0  0  0  0  0  0  0  0  0  0  0
  -12.9423    3.8540   25.4316 C   0  0  0  0  0  0  0  0  0  0  0  0
  -12.5178    4.4349   26.6237 C   0  0  0  0  0  0  0  0  0  0  0  0
  -11.2781    4.0835   27.1063 C   0  0  0  0  0  0  0  0  0  0  0  0
  -10.7128    5.2021   27.4447 C   0  0  0  0  0  0  0  0  0  0  0  0
   -6.4817    5.0031   28.1255 C   0  0  0  0  0  0  0  0  0  0  0  0
   -7.1842    6.2336   28.1954 C   0  0  0  0  0  0  0  0  0  0  0  0
  2  4  1  0
  4  5  1  0
  3 12  1  0
 11 12  1  0
  1  2  2  0
  2  3  1  0
  3  8  2  0
  8 14  1  0
 14 13  2  0
 13  1  1  0
  5  6  2  0
  6  7  1  0
  7  9  2  0
  9 10  1  0
 10 11  2  0
 11  5  1  0
M  END
$$$$
