No_336-complexes_sdf/6BKW-FPZ/2024-09-17-14-21-01/
     RDKit          3D

 30 33  0  0  0  0  0  0  0  0999 V2000
   -7.7129    4.2099   27.0854 C   0  0  0  0  0  0  0  0  0  0  0  0
   -8.9133    4.4736   27.0998 C   0  0  0  0  0  0  0  0  0  0  0  0
   -9.4643    5.5426   27.7628 C   0  0  0  0  0  0  0  0  0  0  0  0
   -6.8373    4.9942   27.9785 C   0  0  0  0  0  0  0  0  0  0  0  0
   -7.3717    6.0428   28.6744 C   0  0  0  0  0  0  0  0  0  0  0  0
   -8.6869    6.3937   28.5345 C   0  0  0  0  0  0  0  0  0  0  0  0
   -9.8029    3.6153   26.2122 C   0  0  0  0  0  0  0  0  0  0  0  0
   -9.9626    4.0202   24.8230 C   0  0  0  0  0  0  0  0  0  0  0  0
  -10.5693    3.2807   23.8758 C   0  0  0  0  0  0  0  0  0  0  0  0
  -11.0580    2.0220   24.2466 C   0  0  0  0  0  0  0  0  0  0  0  0
  -10.2406    2.3497   26.4948 C   0  0  0  0  0  0  0  0  0  0  0  0
  -10.8815    1.5203   25.5648 C   0  0  0  0  0  0  0  0  0  0  0  0
  -10.7696    3.8012   22.5296 C   0  0  0  0  0  0  0  0  0  0  0  0
  -10.9850    5.1909   22.3969 C   0  0  0  0  0  0  0  0  0  0  0  0
  -10.7485    2.9660   21.4546 C   0  0  0  0  0  0  0  0  0  0  0  0
  -10.0150    1.8377   27.8897 C   0  0  0  0  0  0  0  0  0  0  0  0
  -11.0091    0.9514   28.3721 C   0  0  1  0  0  0  0  0  0  0  0  0
  -12.2591    1.5330   28.6753 C   0  0  0  0  0  0  0  0  0  0  0  0
  -12.3380    2.8531   28.8837 C   0  0  0  0  0  0  0  0  0  0  0  0
  -13.5851    3.4729   29.3913 C   0  0  0  0  0  0  0  0  0  0  0  0
  -14.6121    2.8631   29.5241 C   0  0  0  0  0  0  0  0  0  0  0  0
  -13.3686    0.7873   29.1335 C   0  0  0  0  0  0  0  0  0  0  0  0
  -14.6163    1.4037   29.4162 C   0  0  0  0  0  0  0  0  0  0  0  0
  -10.8038   -0.4448   28.3888 C   0  0  0  0  0  0  0  0  0  0  0  0
   -9.6026   -1.0020   27.9570 C   0  0  0  0  0  0  0  0  0  0  0  0
   -8.6708   -0.3250   27.3516 C   0  0  0  0  0  0  0  0  0  0  0  0
   -7.3112   -0.9044   27.2861 C   0  0  0  0  0  0  0  0  0  0  0  0
   -7.1680   -2.1289   27.5734 C   0  0  0  0  0  0  0  0  0  0  0  0
   -9.2555   -2.3226   28.4562 C   0  0  0  0  0  0  0  0  0  0  0  0
   -8.0369   -2.8692   28.3330 C   0  0  0  0  0  0  0  0  0  0  0  0
  2  7  1  0
  9 13  1  0
 13 14  1  0
 13 15  1  0
 11 16  1  0
 17 16  1  6
 17 18  1  0
 17 24  1  0
 24 25  1  0
  7  8  2  0
  8  9  1  0
  9 10  2  0
 10 12  1  0
 12 11  2  0
 11  7  1  0
 18 19  2  0
 19 20  1  0
 20 21  2  0
 21 23  1  0
 23 22  2  0
 22 18  1  0
  1  2  2  0
  2  3  1  0
  3  6  2  0
  6  5  1  0
  5  4  2  0
  4  1  1  0
 25 26  2  0
 26 27  1  0
 27 28  2  0
 28 30  1  0
 30 29  2  0
 29 25  1  0
M  END
$$$$
