No_3580-complexes_sdf/6BKW-FPZ/2024-09-17-14-21-01/
     RDKit          3D

 40 45  0  0  0  0  0  0  0  0999 V2000
   -7.9040    3.9820   27.1177 C   0  0  0  0  0  0  0  0  0  0  0  0
   -9.0711    4.3164   27.0630 C   0  0  0  0  0  0  0  0  0  0  0  0
   -9.8698    3.9665   25.9494 C   0  0  0  0  0  0  0  0  0  0  0  0
   -7.0332    4.5030   28.2025 C   0  0  0  0  0  0  0  0  0  0  0  0
   -9.4357    2.9501   25.1393 C   0  0  0  0  0  0  0  0  0  0  0  0
   -8.2567    2.3218   25.4797 C   0  0  0  0  0  0  0  0  0  0  0  0
   -7.5105    2.7966   26.5752 C   0  0  0  0  0  0  0  0  0  0  0  0
  -10.2472    2.5204   24.0264 C   0  0  0  0  0  0  0  0  0  0  0  0
  -10.1048    1.3095   23.5388 C   0  0  0  0  0  0  0  0  0  0  0  0
  -10.7350    0.9072   22.2888 C   0  0  0  0  0  0  0  0  0  0  0  0
  -11.5710    1.8285   21.6592 C   0  0  0  0  0  0  0  0  0  0  0  0
  -10.9251    3.3813   23.2133 C   0  0  0  0  0  0  0  0  0  0  0  0
  -11.5955    3.1392   22.1165 C   0  0  0  0  0  0  0  0  0  0  0  0
   -7.4496    5.6274   28.8407 N   0  0  0  0  0  0  0  0  0  0  0  0
   -5.8088    4.1708   28.2381 O   0  0  0  0  0  0  0  0  0  0  0  0
  -12.1955    1.4646   20.5541 F   0  0  0  0  0  0  0  0  0  0  0  0
  -10.6659   -0.3476   21.7963 O   0  0  0  0  0  0  0  0  0  0  0  0
   -9.4682   -0.8361   21.5774 C   0  0  0  0  0  0  0  0  0  0  0  0
   -9.4186   -1.8529   20.5241 C   0  0  0  0  0  0  0  0  0  0  0  0
   -8.1355   -2.3980   20.2212 C   0  0  0  0  0  0  0  0  0  0  0  0
   -7.0128   -2.1769   21.0606 C   0  0  0  0  0  0  0  0  0  0  0  0
   -7.1791   -1.2623   22.1553 C   0  0  0  0  0  0  0  0  0  0  0  0
   -8.2999   -0.6714   22.3758 C   0  0  0  0  0  0  0  0  0  0  0  0
   -6.0457   -1.0513   22.9287 N   0  0  0  0  0  0  0  0  0  0  0  0
   -5.9885   -1.4627   24.3305 C   0  0  0  0  0  0  0  0  0  0  0  0
   -6.9939   -1.5284   24.9813 C   0  0  0  0  0  0  0  0  0  0  0  0
   -6.9779   -1.8914   26.3966 C   0  0  0  0  0  0  0  0  0  0  0  0
   -5.7462   -1.8849   27.0320 C   0  0  0  0  0  0  0  0  0  0  0  0
   -4.5640   -1.7113   26.2468 C   0  0  0  0  0  0  0  0  0  0  0  0
   -4.6414   -1.4459   24.9362 C   0  0  0  0  0  0  0  0  0  0  0  0
   -8.2452   -2.0495   27.1687 C   0  0  0  0  0  0  0  0  0  0  0  0
   -9.3619   -2.0757   26.6248 C   0  0  0  0  0  0  0  0  0  0  0  0
   -9.4521   -2.1927   25.2769 C   0  0  0  0  0  0  0  0  0  0  0  0
   -8.3394   -1.8376   24.4981 C   0  0  0  0  0  0  0  0  0  0  0  0
  -10.7621   -2.2753   24.5800 C   0  0  0  0  0  0  0  0  0  0  0  0
  -11.8126   -1.5131   24.9698 C   0  0  0  0  0  0  0  0  0  0  0  0
  -13.0806   -1.6934   24.3989 C   0  0  0  0  0  0  0  0  0  0  0  0
  -13.1972   -2.5939   23.3386 C   0  0  0  0  0  0  0  0  0  0  0  0
  -12.1357   -3.4098   22.9683 C   0  0  0  0  0  0  0  0  0  0  0  0
  -10.9063   -3.2399   23.5984 C   0  0  0  0  0  0  0  0  0  0  0  0
  1  4  1  0
  5  8  1  0
  4 14  1  0
  4 15  2  0
 11 16  1  0
 10 17  1  0
 17 18  1  0
 22 24  1  0
 24 25  1  0
 33 35  1  0
 18 19  2  0
 19 20  1  0
 20 21  2  0
 21 22  1  0
 22 23  2  0
 23 18  1  0
 25 26  2  0
 27 28  2  0
 28 29  1  0
 29 30  2  0
 30 25  1  0
  1  2  2  0
  2  3  1  0
  3  5  2  0
  5  6  1  0
  6  7  2  0
  7  1  1  0
 35 36  2  0
 36 37  1  0
 37 38  2  0
 38 39  1  0
 39 40  2  0
 40 35  1  0
 26 27  1  0
 27 31  1  0
 31 32  2  0
 32 33  1  0
 33 34  2  0
 34 26  1  0
  8  9  2  0
  9 10  1  0
 10 11  2  0
 11 13  1  0
 13 12  2  0
 12  8  1  0
M  END
$$$$
