No_3588-complexes_sdf/6BKW-FPZ/2024-09-17-14-21-01/
     RDKit          3D

 40 45  0  0  0  0  0  0  0  0999 V2000
   -7.9040    3.9820   27.1177 C   0  0  0  0  0  0  0  0  0  0  0  0
   -8.2057    2.8231   26.8733 C   0  0  0  0  0  0  0  0  0  0  0  0
   -8.7695    5.0740   26.7916 C   0  0  0  0  0  0  0  0  0  0  0  0
   -8.4785    6.4289   27.2922 C   0  0  0  0  0  0  0  0  0  0  0  0
   -9.2529    2.3917   26.0668 C   0  0  0  0  0  0  0  0  0  0  0  0
  -10.1277    3.4333   25.7287 C   0  0  0  0  0  0  0  0  0  0  0  0
   -9.9101    4.7626   26.0802 C   0  0  0  0  0  0  0  0  0  0  0  0
   -7.1891    1.6728   27.2777 C   0  0  0  0  0  0  0  0  0  0  0  0
   -5.9425    2.0656   27.8511 C   0  0  0  0  0  0  0  0  0  0  0  0
   -5.0754    0.9956   28.2469 C   0  0  0  0  0  0  0  0  0  0  0  0
   -5.4659   -0.2889   28.1940 C   0  0  0  0  0  0  0  0  0  0  0  0
   -7.4672    0.3212   27.3008 C   0  0  0  0  0  0  0  0  0  0  0  0
   -6.7275   -0.6131   27.7852 C   0  0  0  0  0  0  0  0  0  0  0  0
   -4.5580   -1.3273   28.7892 C   0  0  0  0  0  0  0  0  0  0  0  0
   -3.4752   -1.1014   29.3079 C   0  0  0  0  0  0  0  0  0  0  0  0
   -2.6947   -2.2386   29.7619 C   0  0  0  0  0  0  0  0  0  0  0  0
   -3.1442   -3.4396   29.6381 C   0  0  0  0  0  0  0  0  0  0  0  0
   -4.8803   -2.7146   28.7702 C   0  0  0  0  0  0  0  0  0  0  0  0
   -4.2268   -3.6890   29.1671 C   0  0  0  0  0  0  0  0  0  0  0  0
   -7.5656    6.5507   28.1038 F   0  0  0  0  0  0  0  0  0  0  0  0
   -8.2452    7.3104   26.2341 F   0  0  0  0  0  0  0  0  0  0  0  0
   -9.6337    6.8517   27.9408 F   0  0  0  0  0  0  0  0  0  0  0  0
  -11.3054    3.1661   24.8824 C   0  0  0  0  0  0  0  0  0  0  0  0
  -12.4513    2.7147   25.4639 C   0  0  0  0  0  0  0  0  0  0  0  0
  -11.0266    2.7467   23.5344 C   0  0  0  0  0  0  0  0  0  0  0  0
  -10.0006    2.7448   22.9693 C   0  0  0  0  0  0  0  0  0  0  0  0
   -9.8423    2.4616   21.4929 C   0  0  0  0  0  0  0  0  0  0  0  0
  -10.9031    2.0006   20.8376 C   0  0  0  0  0  0  0  0  0  0  0  0
  -12.1320    1.9477   21.4797 C   0  0  0  0  0  0  0  0  0  0  0  0
  -12.2275    2.3479   22.7759 C   0  0  0  0  0  0  0  0  0  0  0  0
  -12.5341    1.9234   26.5231 C   0  0  0  0  0  0  0  0  0  0  0  0
  -13.7466    1.5974   27.1712 C   0  0  0  0  0  0  0  0  0  0  0  0
  -14.8902    2.1551   26.6714 C   0  0  0  0  0  0  0  0  0  0  0  0
  -14.8876    2.9845   25.5976 C   0  0  0  0  0  0  0  0  0  0  0  0
  -13.6891    3.3514   25.0007 C   0  0  0  0  0  0  0  0  0  0  0  0
   -6.3491   -2.9625   28.1431 C   0  0  0  0  0  0  0  0  0  0  0  0
   -7.1711   -1.9429   27.7204 C   0  0  0  0  0  0  0  0  0  0  0  0
   -8.4807   -2.3076   27.2666 C   0  0  0  0  0  0  0  0  0  0  0  0
   -8.7661   -2.8478   26.3221 C   0  0  0  0  0  0  0  0  0  0  0  0
  -10.0464   -2.9571   25.7626 C   0  0  0  0  0  0  0  0  0  0  0  0
  3  4  1  0
  2  8  1  0
  4 20  1  0
  4 21  1  0
  4 22  1  0
  6 23  1  0
 23 25  1  0
 37 38  1  0
 38 39  1  0
 39 40  2  0
 23 24  1  0
 25 26  2  0
 26 27  1  0
 27 28  2  0
 28 29  1  0
 29 30  2  0
 30 25  1  0
  1  2  2  0
  2  5  1  0
  5  6  2  0
  6  7  1  0
  7  3  2  0
  3  1  1  0
 24 31  2  0
 31 32  1  0
 32 33  2  0
 33 34  1  0
 34 35  2  0
 35 24  1  0
 13 37  1  0
 37 36  2  0
 36 18  1  0
 14 11  1  0
 14 15  2  0
 15 16  1  0
 16 17  2  0
 17 19  1  0
 19 18  2  0
 18 14  1  0
  8  9  2  0
  9 10  1  0
 10 11  2  0
 11 13  1  0
 13 12  2  0
 12  8  1  0
M  END
$$$$
