No_3532-complexes_sdf/6BKW-FPZ/2024-09-17-14-21-01/
     RDKit          3D

 31 34  0  0  0  0  0  0  0  0999 V2000
   -7.7129    4.2099   27.0854 C   0  0  0  0  0  0  0  0  0  0  0  0
   -8.9133    4.4736   27.0998 C   0  0  0  0  0  0  0  0  0  0  0  0
   -9.4643    5.5426   27.7628 C   0  0  0  0  0  0  0  0  0  0  0  0
   -7.2009    2.9448   26.6134 C   0  0  0  0  0  0  0  0  0  0  0  0
   -8.1365    1.9533   26.2981 C   0  0  0  0  0  0  0  0  0  0  0  0
   -9.4501    2.2651   26.2497 C   0  0  0  0  0  0  0  0  0  0  0  0
   -9.8615    3.4703   26.6763 C   0  0  0  0  0  0  0  0  0  0  0  0
   -7.5886    0.6540   25.9006 C   0  0  0  0  0  0  0  0  0  0  0  0
   -7.8476    0.2277   24.8208 O   0  0  0  0  0  0  0  0  0  0  0  0
   -7.1746   -0.1598   26.8890 O   0  0  0  0  0  0  0  0  0  0  0  0
   -6.3232   -0.8720   26.9396 C   0  0  0  0  0  0  0  0  0  0  0  0
   -5.9744   -1.2316   28.1968 C   0  0  0  0  0  0  0  0  0  0  0  0
   -5.1160   -1.2871   28.7495 C   0  0  0  0  0  0  0  0  0  0  0  0
   -4.8486   -1.4388   30.2302 C   0  0  0  0  0  0  0  0  0  0  0  0
   -3.7452   -1.0229   31.0283 C   0  0  0  0  0  0  0  0  0  0  0  0
   -3.6930   -1.0065   32.4089 C   0  0  0  0  0  0  0  0  0  0  0  0
   -4.8730   -1.4004   33.0756 C   0  0  0  0  0  0  0  0  0  0  0  0
   -5.9994   -1.7218   32.3770 C   0  0  0  0  0  0  0  0  0  0  0  0
   -6.0467   -1.6663   31.0739 C   0  0  0  0  0  0  0  0  0  0  0  0
   -7.1508   -1.4393   29.2586 C   0  0  0  0  0  0  0  0  0  0  0  0
   -7.1818   -1.7187   30.3439 N   0  0  0  0  0  0  0  0  0  0  0  0
   -2.5947   -0.6598   30.3818 F   0  0  0  0  0  0  0  0  0  0  0  0
   -4.7808   -1.4078   34.6128 C   0  0  0  0  0  0  0  0  0  0  0  0
   -3.8831   -0.8725   35.1192 O   0  0  0  0  0  0  0  0  0  0  0  0
   -5.6837   -2.1237   35.2729 N   0  0  0  0  0  0  0  0  0  0  0  0
   -5.7769   -2.0691   36.7128 C   0  0  0  0  0  0  0  0  0  0  0  0
   -5.2043   -3.1014   37.3772 C   0  0  0  0  0  0  0  0  0  0  0  0
   -5.1432   -2.9685   38.6248 C   0  0  0  0  0  0  0  0  0  0  0  0
   -5.7307   -1.8435   39.4174 C   0  0  0  0  0  0  0  0  0  0  0  0
   -6.3098   -0.8080   38.6179 C   0  0  0  0  0  0  0  0  0  0  0  0
   -6.2373   -0.8788   37.2612 C   0  0  0  0  0  0  0  0  0  0  0  0
  5  8  1  0
  8  9  2  0
  8 10  1  0
 10 11  1  0
 15 22  1  0
 17 23  1  0
 23 24  2  0
 23 25  1  0
 25 26  1  0
 11 12  1  0
  3  2  1  0
 26 27  2  0
 27 28  1  0
 28 29  2  0
 29 30  1  0
 30 31  2  0
 31 26  1  0
 14 15  2  0
 15 16  1  0
 16 17  2  0
 17 18  1  0
 18 19  2  0
  1  2  2  0
  2  7  1  0
  7  6  2  0
  6  5  1  0
  5  4  2  0
  4  1  1  0
 12 13  2  0
 13 14  1  0
 14 19  1  0
 19 21  1  0
 21 20  2  0
 20 12  1  0
M  END
$$$$
