No_3212-complexes_sdf/6BKW-FPZ/2024-09-17-14-21-01/
     RDKit          3D

 29 32  0  0  0  0  0  0  0  0999 V2000
   -7.7129    4.2099   27.0854 C   0  0  0  0  0  0  0  0  0  0  0  0
   -7.7814    5.1722   27.8972 C   0  0  0  0  0  0  0  0  0  0  0  0
   -7.3155    2.9699   27.6145 C   0  0  0  0  0  0  0  0  0  0  0  0
   -7.1760    1.9119   26.6708 C   0  0  0  0  0  0  0  0  0  0  0  0
   -6.6384    0.7154   27.2306 C   0  0  0  0  0  0  0  0  0  0  0  0
   -8.5125    6.2959   27.5421 C   0  0  0  0  0  0  0  0  0  0  0  0
   -9.0945    6.4477   26.2385 C   0  0  0  0  0  0  0  0  0  0  0  0
   -8.6368    4.2998   25.9873 C   0  0  0  0  0  0  0  0  0  0  0  0
   -9.2711    5.3566   25.5967 C   0  0  0  0  0  0  0  0  0  0  0  0
   -5.3929    0.7578   27.8635 C   0  0  0  0  0  0  0  0  0  0  0  0
   -5.0180    2.0647   28.4126 C   0  0  0  0  0  0  0  0  0  0  0  0
   -4.6823   -0.4436   28.2261 C   0  0  1  0  0  0  0  0  0  0  0  0
   -3.7926   -0.6001   29.5055 Cl  0  0  0  0  0  0  0  0  0  0  0  0
   -4.8707   -1.6289   27.4843 C   0  0  0  0  0  0  0  0  0  0  0  0
   -5.7590    3.1917   27.9840 C   0  0  0  0  0  0  0  0  0  0  0  0
  -10.0274    5.2810   24.3389 C   0  0  0  0  0  0  0  0  0  0  0  0
  -10.9845    4.1707   24.1269 C   0  0  0  0  0  0  0  0  0  0  0  0
  -11.3962    3.4847   25.1823 C   0  0  0  0  0  0  0  0  0  0  0  0
  -12.3166    2.4253   24.9478 C   0  0  0  0  0  0  0  0  0  0  0  0
  -12.7469    1.6245   26.0163 C   0  0  0  0  0  0  0  0  0  0  0  0
  -13.4375    0.5417   25.9183 C   0  0  0  0  0  0  0  0  0  0  0  0
  -12.2255    2.0333   27.4136 C   0  0  0  0  0  0  0  0  0  0  0  0
  -11.3591    3.0541   27.6541 C   0  0  0  0  0  0  0  0  0  0  0  0
  -10.9720    3.7463   26.5959 C   0  0  0  0  0  0  0  0  0  0  0  0
   -9.7122    3.2379   26.3100 O   0  0  0  0  0  0  0  0  0  0  0  0
  -14.1129    0.2511   25.0200 C   0  0  0  0  0  0  0  0  0  0  0  0
  -14.7713   -1.0259   24.7377 C   0  0  0  0  0  0  0  0  0  0  0  0
  -14.6738   -1.9112   25.7918 C   0  0  0  0  0  0  0  0  0  0  0  0
  -13.9686   -1.6886   26.8986 C   0  0  0  0  0  0  0  0  0  0  0  0
  1  3  1  0
 10 12  1  0
 12 13  1  0
 12 14  1  1
  9 16  1  0
 16 17  1  0
 17 18  1  0
  8 25  1  0
 24 25  1  0
 21 26  1  0
 26 27  2  3
 27 28  1  0
 28 29  2  0
 21 20  1  0
 18 19  2  0
 19 20  1  0
 20 22  2  0
 22 23  1  0
 23 24  2  0
 24 18  1  0
  3  4  2  0
  4  5  1  0
  5 10  2  0
 10 11  1  0
 11 15  2  0
 15  3  1  0
  1  2  2  0
  2  6  1  0
  6  7  2  0
  7  9  1  0
  9  8  2  0
  8  1  1  0
M  END
$$$$
