No_3084-complexes_sdf/6BKW-FPZ/2024-09-17-14-21-01/
     RDKit          3D

 40 43  0  0  0  0  0  0  0  0999 V2000
   -7.9040    3.9820   27.1177 C   0  0  0  0  0  0  0  0  0  0  0  0
   -7.8663    4.8694   27.9238 C   0  0  1  0  0  0  0  0  0  0  0  0
   -7.4547    2.7080   27.4594 C   0  0  0  0  0  0  0  0  0  0  0  0
   -7.9337    1.5946   26.8372 C   0  0  0  0  0  0  0  0  0  0  0  0
   -8.9032    1.7881   25.8510 C   0  0  0  0  0  0  0  0  0  0  0  0
   -9.3787    2.9871   25.5530 C   0  0  0  0  0  0  0  0  0  0  0  0
   -8.9781    4.0300   26.2200 C   0  0  0  0  0  0  0  0  0  0  0  0
   -7.0697    4.8849   28.9766 F   0  0  0  0  0  0  0  0  0  0  0  0
   -8.4034    6.2587   27.6886 C   0  0  0  0  0  0  0  0  0  0  0  0
   -8.3913    6.9653   26.8765 C   0  0  0  0  0  0  0  0  0  0  0  0
   -9.1108    8.3202   26.8857 C   0  0  0  0  0  0  0  0  0  0  0  0
  -10.3471    3.1150   24.4272 C   0  0  0  0  0  0  0  0  0  0  0  0
  -11.0318    4.2919   24.1887 C   0  0  0  0  0  0  0  0  0  0  0  0
  -11.9435    4.4790   23.1577 C   0  0  0  0  0  0  0  0  0  0  0  0
  -12.2021    3.4376   22.2740 C   0  0  0  0  0  0  0  0  0  0  0  0
  -11.4888    2.2290   22.4967 C   0  0  0  0  0  0  0  0  0  0  0  0
  -10.6131    2.0906   23.5192 C   0  0  0  0  0  0  0  0  0  0  0  0
   -7.1836    0.3687   27.2338 C   0  0  0  0  0  0  0  0  0  0  0  0
   -6.4796   -0.3613   26.4115 C   0  0  0  0  0  0  0  0  0  0  0  0
   -5.9674   -1.2510   26.4954 C   0  0  0  0  0  0  0  0  0  0  0  0
   -5.2494   -1.9568   25.3748 C   0  0  0  0  0  0  0  0  0  0  0  0
   -5.5286   -1.4573   24.1178 C   0  0  0  0  0  0  0  0  0  0  0  0
   -6.3179   -0.3597   23.9441 C   0  0  0  0  0  0  0  0  0  0  0  0
   -6.8939    0.1999   24.9968 C   0  0  0  0  0  0  0  0  0  0  0  0
   -5.5379   -1.8318   27.7353 O   0  0  0  0  0  0  0  0  0  0  0  0
   -4.7151   -2.7251   28.0311 C   0  0  0  0  0  0  0  0  0  0  0  0
   -4.5763   -3.0763   29.3934 C   0  0  0  0  0  0  0  0  0  0  0  0
   -5.1189   -2.1886   30.3187 C   0  0  0  0  0  0  0  0  0  0  0  0
   -5.3708   -1.7191   31.2081 C   0  0  0  0  0  0  0  0  0  0  0  0
   -5.7098   -1.0539   32.4672 C   0  0  0  0  0  0  0  0  0  0  0  0
   -5.1485   -1.7708   33.4701 F   0  0  0  0  0  0  0  0  0  0  0  0
   -5.2357    0.2144   32.5588 F   0  0  0  0  0  0  0  0  0  0  0  0
   -7.0236   -1.0269   32.5761 F   0  0  0  0  0  0  0  0  0  0  0  0
   -4.1365   -3.3731   27.1559 O   0  0  0  0  0  0  0  0  0  0  0  0
   -6.5865    0.0332   22.5080 C   0  0  0  0  0  0  0  0  0  0  0  0
   -7.7787   -0.3217   22.0684 N   0  0  0  0  0  0  0  0  0  0  0  0
   -8.7634    0.5156   22.0355 C   0  0  0  0  0  0  0  0  0  0  0  0
   -8.1155   -1.5952   21.4776 C   0  0  0  0  0  0  0  0  0  0  0  0
   -9.8823    0.1718   21.3402 N   0  0  0  0  0  0  0  0  0  0  0  0
   -9.4845   -1.1334   20.9534 C   0  0  0  0  0  0  0  0  0  0  0  0
  1  2  1  0
  2  8  1  6
  2  9  1  0
  9 10  2  3
 10 11  1  0
  6 12  1  0
  4 18  1  0
 20 25  1  0
 25 26  1  0
 26 27  1  0
 27 28  1  0
 28 29  3  0
 29 30  1  0
 30 31  1  0
 30 32  1  0
 30 33  1  0
 26 34  2  0
 23 35  1  0
 35 36  1  0
 36 37  1  0
 36 38  1  0
 37 39  2  0
 38 40  1  0
 39 40  1  0
 18 19  1  0
 12 13  2  0
 13 14  1  0
 14 15  2  0
 15 16  1  0
 16 17  2  0
 17 12  1  0
 19 20  2  0
 20 21  1  0
 21 22  2  0
 22 23  1  0
 23 24  2  0
 24 19  1  0
  1  3  2  0
  3  4  1  0
  4  5  2  0
  5  6  1  0
  6  7  2  0
  7  1  1  0
M  END
$$$$
