No_377-complexes_sdf/6BKW-FPZ/2024-09-17-14-21-01/
     RDKit          3D

 37 41  0  0  0  0  0  0  0  0999 V2000
   -7.2496    3.8871   27.4508 C   0  0  0  0  0  0  0  0  0  0  0  0
   -7.6161    2.7143   27.1523 C   0  0  0  0  0  0  0  0  0  0  0  0
   -6.9719    1.5838   27.5324 C   0  0  0  0  0  0  0  0  0  0  0  0
   -7.4590    0.2827   27.2615 C   0  0  0  0  0  0  0  0  0  0  0  0
   -8.6787    2.5578   26.1663 C   0  0  0  0  0  0  0  0  0  0  0  0
   -9.1184    1.2615   25.8299 C   0  0  0  0  0  0  0  0  0  0  0  0
   -8.4774    0.1568   26.3866 C   0  0  0  0  0  0  0  0  0  0  0  0
   -8.0292    5.0776   27.1809 C   0  0  0  0  0  0  0  0  0  0  0  0
   -9.1088    5.0310   26.2662 C   0  0  0  0  0  0  0  0  0  0  0  0
   -9.4671    3.7013   25.7838 C   0  0  0  0  0  0  0  0  0  0  0  0
   -7.6205    6.4000   27.7317 C   0  0  0  0  0  0  0  0  0  0  0  0
   -6.7610   -0.8806   27.8537 C   0  0  0  0  0  0  0  0  0  0  0  0
   -6.1357   -1.6416   27.2214 C   0  0  0  0  0  0  0  0  0  0  0  0
   -5.3963   -2.7560   27.8062 C   0  0  0  0  0  0  0  0  0  0  0  0
   -5.4048   -2.9436   29.1615 C   0  0  0  0  0  0  0  0  0  0  0  0
   -6.1646   -2.0090   29.9567 C   0  0  0  0  0  0  0  0  0  0  0  0
   -6.7727   -0.9927   29.3685 C   0  0  0  0  0  0  0  0  0  0  0  0
   -8.3188    7.4813   27.2759 N   0  0  0  0  0  0  0  0  0  0  0  0
  -10.5322    3.6544   24.8376 C   0  0  0  0  0  0  0  0  0  0  0  0
  -10.3332    4.1287   23.5996 C   0  0  0  0  0  0  0  0  0  0  0  0
  -11.3322    4.0754   22.5855 C   0  0  0  0  0  0  0  0  0  0  0  0
  -12.4961    3.3708   22.8549 C   0  0  0  0  0  0  0  0  0  0  0  0
  -11.6615    2.8690   25.0846 C   0  0  0  0  0  0  0  0  0  0  0  0
  -12.6685    2.8114   24.1216 C   0  0  0  0  0  0  0  0  0  0  0  0
   -6.2017   -2.1094   31.4431 C   0  0  0  0  0  0  0  0  0  0  0  0
   -5.2934   -1.3666   32.2464 C   0  0  0  0  0  0  0  0  0  0  0  0
   -5.4655   -1.2307   33.5923 C   0  0  0  0  0  0  0  0  0  0  0  0
   -6.4226   -1.9997   34.2675 C   0  0  0  0  0  0  0  0  0  0  0  0
   -7.2962   -2.7777   33.4693 C   0  0  0  0  0  0  0  0  0  0  0  0
   -7.2334   -2.7937   32.1049 C   0  0  0  0  0  0  0  0  0  0  0  0
   -4.2425   -0.5173   31.5726 C   0  0  0  0  0  0  0  0  0  0  0  0
   -2.9838   -1.0929   31.1819 C   0  0  2  0  0  0  0  0  0  0  0  0
   -2.2052   -1.5309   32.3089 C   0  0  0  0  0  0  0  0  0  0  0  0
   -2.5455   -1.1427   29.9009 C   0  0  0  0  0  0  0  0  0  0  0  0
   -2.9308   -0.2155   28.8954 C   0  0  0  0  0  0  0  0  0  0  0  0
   -2.3775   -0.2316   27.5995 C   0  0  0  0  0  0  0  0  0  0  0  0
   -1.5913   -1.2690   27.2128 C   0  0  0  0  0  0  0  0  0  0  0  0
  8 11  1  0
  4 12  1  0
 11 18  1  0
 10 19  1  0
 16 25  1  0
 26 31  1  0
 31 32  1  0
 32 33  1  1
 32 34  1  0
 34 35  2  3
 35 36  1  0
 36 37  2  0
 12 13  2  0
 13 14  1  0
 14 15  2  0
 15 16  1  0
 16 17  2  0
 17 12  1  0
 25 26  2  0
 26 27  1  0
 27 28  2  0
 28 29  1  0
 29 30  2  0
 30 25  1  0
 19 20  2  0
 20 21  1  0
 21 22  2  0
 22 24  1  0
 24 23  2  0
 23 19  1  0
  2  3  1  0
  3  4  2  0
  4  7  1  0
  7  6  2  0
  6  5  1  0
  1  2  2  0
  2  5  1  0
  5 10  2  0
 10  9  1  0
  9  8  2  0
  8  1  1  0
M  END
$$$$
