No_3606-complexes_sdf/6BKW-FPZ/2024-09-17-14-21-01/
     RDKit          3D

 35 40  0  0  0  0  0  0  0  0999 V2000
   -7.9040    3.9820   27.1177 C   0  0  0  0  0  0  0  0  0  0  0  0
   -7.8663    4.8694   27.9238 C   0  0  0  0  0  0  0  0  0  0  0  0
   -7.4698    2.6989   27.4277 C   0  0  0  0  0  0  0  0  0  0  0  0
   -7.9683    1.5964   26.8266 C   0  0  0  0  0  0  0  0  0  0  0  0
   -8.9447    1.7923   25.8533 C   0  0  0  0  0  0  0  0  0  0  0  0
   -9.4405    2.9988   25.5757 C   0  0  0  0  0  0  0  0  0  0  0  0
   -8.9424    4.1117   26.2388 C   0  0  0  0  0  0  0  0  0  0  0  0
   -7.0149    5.0235   28.9341 N   0  0  0  0  0  0  0  0  0  0  0  0
   -8.5186    6.1100   27.6341 N   0  0  0  0  0  0  0  0  0  0  0  0
   -9.4928    5.3715   26.0476 C   0  0  0  0  0  0  0  0  0  0  0  0
   -9.3037    6.4126   26.6870 C   0  0  0  0  0  0  0  0  0  0  0  0
   -7.3544    0.2670   27.0429 C   0  0  0  0  0  0  0  0  0  0  0  0
   -7.9308   -0.7826   26.9100 N   0  0  0  0  0  0  0  0  0  0  0  0
   -7.6516   -1.9311   27.2552 C   0  0  0  0  0  0  0  0  0  0  0  0
   -5.9906    0.2331   27.5384 C   0  0  0  0  0  0  0  0  0  0  0  0
   -5.4776   -0.9400   27.9735 C   0  0  0  0  0  0  0  0  0  0  0  0
   -4.1250   -1.0197   28.5437 C   0  0  0  0  0  0  0  0  0  0  0  0
   -6.3239   -2.0584   27.8532 C   0  0  0  0  0  0  0  0  0  0  0  0
   -3.2052   -0.1669   28.0345 C   0  0  0  0  0  0  0  0  0  0  0  0
   -3.6023    1.0736   27.4977 C   0  0  0  0  0  0  0  0  0  0  0  0
   -4.9877    1.3076   27.2391 C   0  0  0  0  0  0  0  0  0  0  0  0
   -3.7428   -2.1398   29.3934 C   0  0  1  0  0  0  0  0  0  0  0  0
   -4.1965   -1.9693   30.6930 C   0  0  0  0  0  0  0  0  0  0  0  0
   -4.0790   -0.7895   31.3497 C   0  0  0  0  0  0  0  0  0  0  0  0
   -3.6539   -0.6458   32.5087 C   0  0  0  0  0  0  0  0  0  0  0  0
   -3.9519   -1.6708   33.4990 C   0  0  0  0  0  0  0  0  0  0  0  0
   -4.2410   -2.9292   32.9253 C   0  0  0  0  0  0  0  0  0  0  0  0
   -4.2976   -3.1261   31.5821 C   0  0  0  0  0  0  0  0  0  0  0  0
   -3.2132   -3.2283   28.8337 C   0  0  0  0  0  0  0  0  0  0  0  0
   -1.8831   -3.2964   29.0028 C   0  0  0  0  0  0  0  0  0  0  0  0
   -1.1159   -2.4902   29.4318 C   0  0  0  0  0  0  0  0  0  0  0  0
    0.3378   -2.5598   29.5943 C   0  0  0  0  0  0  0  0  0  0  0  0
    0.9131   -3.6503   29.1398 C   0  0  0  0  0  0  0  0  0  0  0  0
    0.1370   -4.6815   28.6055 C   0  0  0  0  0  0  0  0  0  0  0  0
   -1.1875   -4.5420   28.5328 C   0  0  0  0  0  0  0  0  0  0  0  0
  2  8  1  0
  4 12  1  0
 17 22  1  0
 22 23  1  0
 22 29  1  6
 29 30  1  0
 23 24  2  0
 24 25  1  0
 25 26  2  0
 26 27  1  0
 27 28  2  0
 28 23  1  0
 16 17  2  0
 17 19  1  0
 19 20  2  0
 20 21  1  0
 21 15  2  0
  1  3  1  0
  3  4  2  0
  4  5  1  0
  5  6  2  0
  6  7  1  0
  1  2  2  0
  2  9  1  0
  9 11  2  0
 11 10  1  0
 10  7  2  0
  7  1  1  0
 30 31  2  0
 31 32  1  0
 32 33  2  0
 33 34  1  0
 34 35  2  0
 35 30  1  0
 12 13  2  0
 13 14  1  0
 14 18  2  0
 18 16  1  0
 16 15  1  0
 15 12  1  0
M  END
$$$$
