No_3764-complexes_sdf/6BKW-FPZ/2024-09-17-14-21-01/
     RDKit          3D

 37 42  0  0  0  0  0  0  0  0999 V2000
   -7.2496    3.8871   27.4508 C   0  0  0  0  0  0  0  0  0  0  0  0
   -7.9379    4.9063   27.8518 C   0  0  0  0  0  0  0  0  0  0  0  0
   -7.5112    6.1898   27.6280 C   0  0  0  0  0  0  0  0  0  0  0  0
   -7.4783    2.5435   27.5904 C   0  0  1  0  0  0  0  0  0  0  0  0
   -8.8194    2.2030   27.8879 C   0  0  0  0  0  0  0  0  0  0  0  0
   -9.7541    3.2253   28.0908 C   0  0  1  0  0  0  0  0  0  0  0  0
  -11.1122    2.9836   28.4086 C   0  0  0  0  0  0  0  0  0  0  0  0
   -9.3313    4.5683   28.1314 C   0  0  0  0  0  0  0  0  0  0  0  0
  -12.0238    3.9546   28.4438 C   0  0  0  0  0  0  0  0  0  0  0  0
  -11.5770    1.6688   28.7339 C   0  0  0  0  0  0  0  0  0  0  0  0
  -13.1300    3.8210   27.8782 C   0  0  0  0  0  0  0  0  0  0  0  0
  -13.8526    2.6769   28.3138 C   0  0  0  0  0  0  0  0  0  0  0  0
  -12.9722    1.4465   28.1599 C   0  0  2  0  0  0  0  0  0  0  0  0
   -6.5335    1.5711   27.0928 C   0  0  0  0  0  0  0  0  0  0  0  0
   -5.4446    1.4295   28.0055 C   0  0  0  0  0  0  0  0  0  0  0  0
   -4.4085    0.3929   27.8020 C   0  0  0  0  0  0  0  0  0  0  0  0
   -4.6556   -0.5061   26.8369 C   0  0  0  0  0  0  0  0  0  0  0  0
   -5.8405   -0.4526   26.0454 C   0  0  0  0  0  0  0  0  0  0  0  0
   -6.7874    0.5487   26.2612 C   0  0  0  0  0  0  0  0  0  0  0  0
   -3.2265    0.4110   28.6433 C   0  0  0  0  0  0  0  0  0  0  0  0
   -3.0801   -0.8509   29.4313 C   0  0  0  0  0  0  0  0  0  0  0  0
   -3.0279   -0.8323   30.5091 C   0  0  0  0  0  0  0  0  0  0  0  0
   -2.6822   -1.9842   31.4395 C   0  0  0  0  0  0  0  0  0  0  0  0
   -2.7439   -1.9491   32.8375 C   0  0  0  0  0  0  0  0  0  0  0  0
   -3.0362   -0.7150   33.4922 C   0  0  0  0  0  0  0  0  0  0  0  0
   -3.2574    0.4019   32.6764 C   0  0  0  0  0  0  0  0  0  0  0  0
   -3.2402    0.4031   31.4101 C   0  0  0  0  0  0  0  0  0  0  0  0
  -13.5716    0.1940   28.7822 C   0  0  0  0  0  0  0  0  0  0  0  0
  -13.9927   -0.5930   28.1502 C   0  0  0  0  0  0  0  0  0  0  0  0
  -14.0863   -0.7239   26.9101 C   0  0  0  0  0  0  0  0  0  0  0  0
  -13.4330    0.2849   26.1746 C   0  0  1  0  0  0  0  0  0  0  0  0
  -13.3500    0.3663   24.7234 C   0  0  0  0  0  0  0  0  0  0  0  0
  -13.0478    1.4379   27.0437 C   0  0  2  0  0  0  0  0  0  0  0  0
  -12.2520    2.4163   26.1866 N   0  0  0  0  0  0  0  0  0  0  0  0
  -12.7252    2.0328   26.2022 N   0  0  0  0  0  0  0  0  0  0  0  0
  -13.9330    2.4988   25.2417 C   0  0  0  0  0  0  0  0  0  0  0  0
  -12.8784    1.1666   25.0367 C   0  0  0  0  0  0  0  0  0  0  0  0
  1  2  1  0
  2  3  2  0
  1  4  1  0
  4  5  1  0
  5  6  1  0
  6  7  1  1
  2  8  1  0
  6  8  1  0
  7  9  1  0
  7 10  1  0
  9 11  1  0
 11 12  1  0
 13 10  1  6
 12 13  1  0
  4 14  1  6
 16 20  1  0
 20 21  1  0
 13 28  1  0
 28 29  1  0
 29 30  1  0
 31 32  1  6
 13 33  1  0
 31 33  1  0
 33 34  1  6
 34 35  1  0
 35 36  1  0
 32 37  1  0
 35 37  1  0
 21 22  1  0
 30 31  1  0
 22 23  2  0
 23 24  1  0
 24 25  2  0
 25 26  1  0
 26 27  2  0
 27 22  1  0
 14 15  2  0
 15 16  1  0
 16 17  2  0
 17 18  1  0
 18 19  2  0
 19 14  1  0
M  END
$$$$
