No_3214-complexes_sdf/6BKW-FPZ/2024-09-17-14-21-01/
     RDKit          3D

 18 19  0  0  0  0  0  0  0  0999 V2000
   -7.7129    4.2099   27.0854 C   0  0  0  0  0  0  0  0  0  0  0  0
   -7.7814    5.1722   27.8972 C   0  0  0  0  0  0  0  0  0  0  0  0
   -8.8255    3.2789   27.1191 C   0  0  0  0  0  0  0  0  0  0  0  0
   -9.9209    3.4734   27.9101 C   0  0  0  0  0  0  0  0  0  0  0  0
   -9.9736    4.7085   28.6831 C   0  0  0  0  0  0  0  0  0  0  0  0
   -8.8840    5.5441   28.6612 C   0  0  0  0  0  0  0  0  0  0  0  0
   -8.7059    2.0159   26.3410 C   0  0  0  0  0  0  0  0  0  0  0  0
   -7.9268    0.9388   26.6910 C   0  0  0  0  0  0  0  0  0  0  0  0
   -7.2274    0.9373   27.9384 C   0  0  0  0  0  0  0  0  0  0  0  0
   -6.1692   -0.0495   28.0418 C   0  0  0  0  0  0  0  0  0  0  0  0
   -5.9913   -1.0075   27.1081 C   0  0  0  0  0  0  0  0  0  0  0  0
   -7.4754   -0.0158   25.7676 C   0  0  0  0  0  0  0  0  0  0  0  0
   -6.5725   -0.9267   25.9368 C   0  0  0  0  0  0  0  0  0  0  0  0
   -9.5092    2.0268   25.1572 C   0  0  0  0  0  0  0  0  0  0  0  0
   -9.7837    3.1470   24.5359 C   0  0  0  0  0  0  0  0  0  0  0  0
  -10.5666    3.2005   23.3493 C   0  0  0  0  0  0  0  0  0  0  0  0
  -10.8456    2.0115   22.7309 C   0  0  0  0  0  0  0  0  0  0  0  0
  -10.4446    0.8024   23.3095 C   0  0  0  0  0  0  0  0  0  0  0  0
  3  7  1  0
  7  8  1  0
  7 14  1  0
 14 15  2  3
 15 16  1  0
 16 17  2  3
 17 18  1  0
  1  2  2  0
  2  6  1  0
  6  5  2  0
  5  4  1  0
  4  3  2  0
  3  1  1  0
  8  9  2  0
  9 10  1  0
 10 11  2  0
 11 13  1  0
 13 12  2  0
 12  8  1  0
M  END
$$$$
