No_3445-complexes_sdf/6BKW-FPZ/2024-09-17-14-21-01/
     RDKit          3D

 18 20  0  0  0  0  0  0  0  0999 V2000
   -7.9040    3.9820   27.1177 C   0  0  0  0  0  0  0  0  0  0  0  0
   -9.0711    4.3164   27.0630 C   0  0  0  0  0  0  0  0  0  0  0  0
   -9.9692    3.7224   26.1073 C   0  0  0  0  0  0  0  0  0  0  0  0
   -7.4776    2.6994   26.6283 C   0  0  0  0  0  0  0  0  0  0  0  0
   -8.4406    1.9440   25.9776 C   0  0  0  0  0  0  0  0  0  0  0  0
   -9.6379    2.5001   25.6881 C   0  0  0  0  0  0  0  0  0  0  0  0
   -7.0025    4.5948   27.9221 F   0  0  0  0  0  0  0  0  0  0  0  0
  -10.6113    1.7254   24.8406 C   0  0  0  0  0  0  0  0  0  0  0  0
  -10.7870    2.0238   23.6294 C   0  0  0  0  0  0  0  0  0  0  0  0
  -11.5412    1.3645   22.7269 C   0  0  0  0  0  0  0  0  0  0  0  0
  -12.2221    0.2056   23.2158 C   0  0  0  0  0  0  0  0  0  0  0  0
  -11.3281    0.6549   25.4031 C   0  0  0  0  0  0  0  0  0  0  0  0
  -12.1077   -0.1112   24.5536 C   0  0  0  0  0  0  0  0  0  0  0  0
   -9.4452    5.6057   27.4711 F   0  0  0  0  0  0  0  0  0  0  0  0
  -12.8696   -1.2748   25.0480 C   0  0  0  0  0  0  0  0  0  0  0  0
  -12.8085   -1.5220   26.4098 C   0  0  0  0  0  0  0  0  0  0  0  0
  -11.9494   -0.7023   27.2653 C   0  0  0  0  0  0  0  0  0  0  0  0
  -11.2254    0.3438   26.8381 C   0  0  0  0  0  0  0  0  0  0  0  0
  1  7  1  0
  6  8  1  0
  2 14  1  0
 13 15  2  0
 15 16  1  0
 16 17  2  0
 17 18  1  0
 18 12  2  0
  1  2  2  0
  2  3  1  0
  3  6  2  0
  6  5  1  0
  5  4  2  0
  4  1  1  0
  8  9  2  0
  9 10  1  0
 10 11  2  0
 11 13  1  0
 13 12  1  0
 12  8  1  0
M  END
$$$$
