No_3936-complexes_sdf/6BKW-FPZ/2024-09-17-14-21-01/
     RDKit          3D

 10 10  0  0  0  0  0  0  0  0999 V2000
   -7.2496    3.8871   27.4508 C   0  0  0  0  0  0  0  0  0  0  0  0
   -7.6161    2.7143   27.1523 C   0  0  0  0  0  0  0  0  0  0  0  0
   -7.1618    1.8631   27.5232 C   0  0  0  0  0  0  0  0  0  0  0  0
   -8.0384    5.0866   27.3232 C   0  0  0  0  0  0  0  0  0  0  0  0
   -7.6403    6.3228   27.8917 C   0  0  0  0  0  0  0  0  0  0  0  0
   -7.4924    0.4564   27.3026 C   0  0  0  0  0  0  0  0  0  0  0  0
   -9.3836    4.8896   26.8950 C   0  0  0  0  0  0  0  0  0  0  0  0
   -9.8200    3.6647   26.4992 C   0  0  0  0  0  0  0  0  0  0  0  0
   -9.0298    2.5763   26.6788 C   0  0  0  0  0  0  0  0  0  0  0  0
   -8.7657    0.2584   26.7878 C   0  0  0  0  0  0  0  0  0  0  0  0
  2  3  1  0
  4  5  1  0
  3  6  2  3
  6 10  1  0
  1  2  2  0
  2  9  1  0
  9  8  2  0
  8  7  1  0
  7  4  2  0
  4  1  1  0
M  END
$$$$
