No_374-complexes_sdf/6BKW-FPZ/2024-09-17-14-21-01/
     RDKit          3D

 30 35  0  0  0  0  0  0  0  0999 V2000
   -7.9040    3.9820   27.1177 C   0  0  0  0  0  0  0  0  0  0  0  0
   -7.8663    4.8694   27.9238 C   0  0  0  0  0  0  0  0  0  0  0  0
   -7.4547    2.7080   27.4594 C   0  0  0  0  0  0  0  0  0  0  0  0
   -7.9337    1.5946   26.8372 C   0  0  0  0  0  0  0  0  0  0  0  0
   -8.9032    1.7881   25.8510 C   0  0  0  0  0  0  0  0  0  0  0  0
   -9.3692    2.8710   25.7385 C   0  0  0  0  0  0  0  0  0  0  0  0
   -9.0239    3.9964   26.2902 C   0  0  0  0  0  0  0  0  0  0  0  0
   -7.9543    6.0306   27.8993 N   0  0  0  0  0  0  0  0  0  0  0  0
  -10.4483    3.2738   24.5750 C   0  0  0  0  0  0  0  0  0  0  0  0
  -11.4199    2.5807   24.3376 C   0  0  0  0  0  0  0  0  0  0  0  0
  -12.3614    2.9439   23.2920 C   0  0  0  0  0  0  0  0  0  0  0  0
  -12.1224    4.1510   22.5963 C   0  0  0  0  0  0  0  0  0  0  0  0
  -10.4095    4.5393   23.7553 C   0  0  0  0  0  0  0  0  0  0  0  0
  -11.1246    4.9732   22.9028 C   0  0  0  0  0  0  0  0  0  0  0  0
   -8.5910    6.6137   26.8602 C   0  0  0  0  0  0  0  0  0  0  0  0
   -9.2003    5.6120   26.0135 C   0  0  0  0  0  0  0  0  0  0  0  0
   -8.8516    7.8613   26.7315 N   0  0  0  0  0  0  0  0  0  0  0  0
   -7.3387    0.2149   27.0614 C   0  0  1  0  0  0  0  0  0  0  0  0
   -6.0623    0.0917   27.6316 C   0  0  0  0  0  0  0  0  0  0  0  0
   -5.5774   -1.1119   28.0712 C   0  0  0  0  0  0  0  0  0  0  0  0
   -6.4202   -2.2033   27.8338 C   0  0  0  0  0  0  0  0  0  0  0  0
   -7.8979   -1.0709   27.2314 C   0  0  0  0  0  0  0  0  0  0  0  0
   -4.1501   -1.1508   28.5797 C   0  0  0  0  0  0  0  0  0  0  0  0
   -3.6130   -1.9683   28.9242 C   0  0  0  0  0  0  0  0  0  0  0  0
   -4.2392   -3.2866   28.9809 C   0  0  0  0  0  0  0  0  0  0  0  0
   -5.5262   -3.3738   28.4446 C   0  0  0  0  0  0  0  0  0  0  0  0
   -3.5594    0.3430   28.6184 C   0  0  0  0  0  0  0  0  0  0  0  0
   -2.5565    0.6149   28.9261 O   0  0  0  0  0  0  0  0  0  0  0  0
   -4.2862    1.4671   28.0918 N   0  0  0  0  0  0  0  0  0  0  0  0
   -5.3621    1.3664   27.6961 C   0  0  0  0  0  0  0  0  0  0  0  0
  6  9  1  0
 15 17  1  0
 18  4  1  1
 18 19  1  0
 18 22  1  0
 23 27  1  0
 27 28  2  0
 27 29  1  0
 19 30  1  0
 22 21  1  0
 20 19  1  0
 30 29  1  0
 20 21  2  0
 21 26  1  0
 26 25  2  0
 25 24  1  0
 24 23  2  0
 23 20  1  0
  1  3  1  0
  3  4  2  0
  4  5  1  0
  5  6  2  0
  6  7  1  0
  1  2  2  0
  2  8  1  0
  8 15  2  0
 15 16  1  0
 16  7  2  0
  7  1  1  0
  9 10  2  0
 10 11  1  0
 11 12  2  0
 12 14  1  0
 14 13  2  0
 13  9  1  0
M  END
$$$$
