No_3999-complexes_sdf/6BKW-FPZ/2024-09-17-14-21-01/
     RDKit          3D

 21 23  0  0  0  0  0  0  0  0999 V2000
   -7.9040    3.9820   27.1177 C   0  0  0  0  0  0  0  0  0  0  0  0
   -7.8663    4.8694   27.9238 C   0  0  0  0  0  0  0  0  0  0  0  0
   -9.0501    3.8017   26.2617 C   0  0  0  0  0  0  0  0  0  0  0  0
   -9.1826    2.7026   25.3575 C   0  0  0  0  0  0  0  0  0  0  0  0
   -8.6940    6.0131   27.8614 C   0  0  0  0  0  0  0  0  0  0  0  0
   -9.9755    4.8547   26.2361 C   0  0  0  0  0  0  0  0  0  0  0  0
   -9.7463    5.9398   27.0364 C   0  0  0  0  0  0  0  0  0  0  0  0
   -8.7079    1.4615   25.7719 C   0  0  0  0  0  0  0  0  0  0  0  0
   -9.8679    2.8075   24.1351 C   0  0  0  0  0  0  0  0  0  0  0  0
   -8.6966    0.3747   24.9258 C   0  0  0  0  0  0  0  0  0  0  0  0
   -9.9428    1.7154   23.3069 C   0  0  0  0  0  0  0  0  0  0  0  0
   -9.3408    0.5169   23.7054 C   0  0  0  0  0  0  0  0  0  0  0  0
   -9.4285   -0.6594   22.7561 C   0  0  0  0  0  0  0  0  0  0  0  0
   -8.3510   -1.3085   22.4802 C   0  0  0  0  0  0  0  0  0  0  0  0
   -8.2707   -2.2774   21.4680 C   0  0  0  0  0  0  0  0  0  0  0  0
   -9.4362   -2.4972   20.6787 C   0  0  0  0  0  0  0  0  0  0  0  0
  -10.5036   -0.7696   21.8530 C   0  0  0  0  0  0  0  0  0  0  0  0
  -10.5149   -1.7112   20.8803 C   0  0  0  0  0  0  0  0  0  0  0  0
  -11.6689   -1.9162   19.9911 C   0  0  0  0  0  0  0  0  0  0  0  0
  -11.8055   -2.4236   19.1134 N   0  0  0  0  0  0  0  0  0  0  0  0
  -12.9360   -2.5243   18.3353 C   0  0  0  0  0  0  0  0  0  0  0  0
  3  4  1  0
 12 13  1  0
 18 19  1  0
 19 20  2  3
 20 21  1  0
  4  8  2  0
  8 10  1  0
 10 12  2  0
 12 11  1  0
 11  9  2  0
  9  4  1  0
 13 14  2  0
 14 15  1  0
 15 16  2  0
 16 18  1  0
 18 17  2  0
 17 13  1  0
  1  2  2  0
  2  5  1  0
  5  7  2  0
  7  6  1  0
  6  3  2  0
  3  1  1  0
M  END
$$$$
