No_3578-complexes_sdf/6BKW-FPZ/2024-09-17-14-21-01/
     RDKit          3D

 40 44  0  0  0  0  0  0  0  0999 V2000
   -7.9040    3.9820   27.1177 C   0  0  0  0  0  0  0  0  0  0  0  0
   -9.0711    4.3164   27.0630 C   0  0  0  0  0  0  0  0  0  0  0  0
   -9.9692    3.7224   26.1073 C   0  0  0  0  0  0  0  0  0  0  0  0
   -7.4776    2.6994   26.6283 C   0  0  0  0  0  0  0  0  0  0  0  0
   -6.2837    2.0851   27.1779 C   0  0  0  0  0  0  0  0  0  0  0  0
   -5.8064    2.0221   28.1311 C   0  0  0  0  0  0  0  0  0  0  0  0
   -8.5154    2.0106   26.0515 C   0  0  0  0  0  0  0  0  0  0  0  0
   -9.6836    2.4960   25.7338 C   0  0  0  0  0  0  0  0  0  0  0  0
   -4.5363    1.2563   28.4410 C   0  0  0  0  0  0  0  0  0  0  0  0
   -4.0761    0.3629   27.5591 C   0  0  0  0  0  0  0  0  0  0  0  0
   -4.8562    0.1668   26.4212 C   0  0  0  0  0  0  0  0  0  0  0  0
   -5.9448    0.8997   26.1748 C   0  0  0  0  0  0  0  0  0  0  0  0
   -2.8637   -0.4088   27.8358 C   0  0  0  0  0  0  0  0  0  0  0  0
   -1.9542    0.2025   28.3022 F   0  0  0  0  0  0  0  0  0  0  0  0
   -3.1828   -1.4348   28.7082 F   0  0  0  0  0  0  0  0  0  0  0  0
   -2.3882   -0.9659   26.6743 F   0  0  0  0  0  0  0  0  0  0  0  0
   -9.4790    6.0177   27.5747 Cl  0  0  0  0  0  0  0  0  0  0  0  0
  -10.6175    1.8029   24.8581 C   0  0  0  0  0  0  0  0  0  0  0  0
  -10.2612    0.8676   24.1397 C   0  0  0  0  0  0  0  0  0  0  0  0
   -9.3341    0.8382   23.6981 C   0  0  0  0  0  0  0  0  0  0  0  0
   -8.9070   -0.2930   22.7737 C   0  0  0  0  0  0  0  0  0  0  0  0
   -7.5471   -0.5170   22.4386 C   0  0  0  0  0  0  0  0  0  0  0  0
   -7.1700   -1.4810   21.5208 C   0  0  0  0  0  0  0  0  0  0  0  0
   -8.1317   -2.2066   20.7559 C   0  0  0  0  0  0  0  0  0  0  0  0
   -9.4586   -1.8674   20.9784 C   0  0  0  0  0  0  0  0  0  0  0  0
   -9.7844   -0.9074   21.9371 C   0  0  0  0  0  0  0  0  0  0  0  0
  -12.0207    2.3029   24.9701 C   0  0  0  0  0  0  0  0  0  0  0  0
  -12.9296    1.3696   24.9228 C   0  0  0  0  0  0  0  0  0  0  0  0
  -12.6352    0.2289   24.1112 C   0  0  0  0  0  0  0  0  0  0  0  0
  -11.3528   -0.0137   23.7410 C   0  0  0  0  0  0  0  0  0  0  0  0
  -11.0965   -0.9821   22.6346 C   0  0  0  0  0  0  0  0  0  0  0  0
  -12.3316   -1.8760   21.9497 Cl  0  0  0  0  0  0  0  0  0  0  0  0
  -14.3365    1.6296   25.2363 C   0  0  0  0  0  0  0  0  0  0  0  0
  -15.1562    0.9182   25.2362 O   0  0  0  0  0  0  0  0  0  0  0  0
  -14.6295    2.9809   25.3793 O   0  0  0  0  0  0  0  0  0  0  0  0
  -15.4408    3.4371   26.1150 C   0  0  0  0  0  0  0  0  0  0  0  0
  -15.0395    3.8230   27.4607 C   0  0  0  0  0  0  0  0  0  0  0  0
  -15.7291    4.4781   28.2113 C   0  0  0  0  0  0  0  0  0  0  0  0
  -15.2311    4.8785   29.5172 C   0  0  0  0  0  0  0  0  0  0  0  0
  -13.9908    4.4334   29.9692 C   0  0  0  0  0  0  0  0  0  0  0  0
  4  5  1  0
 10 13  1  0
 13 14  1  0
 13 15  1  0
 13 16  1  0
  2 17  1  0
  8 18  1  0
 31 32  1  0
 28 33  1  0
 33 34  2  0
 33 35  1  0
 35 36  1  0
 36 37  1  0
 37 38  2  3
 38 39  1  0
 39 40  2  0
  1  2  2  0
  2  3  1  0
  3  8  2  0
  8  7  1  0
  7  4  2  0
  4  1  1  0
 19 20  2  0
 20 21  1  0
 26 31  1  0
 31 30  2  0
 18 19  1  0
 19 30  1  0
 30 29  1  0
 29 28  2  0
 28 27  1  0
 27 18  2  0
  5  6  2  0
  6  9  1  0
  9 10  2  0
 10 11  1  0
 11 12  2  0
 12  5  1  0
 21 22  2  0
 22 23  1  0
 23 24  2  0
 24 25  1  0
 25 26  2  0
 26 21  1  0
M  END
$$$$
