No_3531-complexes_sdf/6BKW-FPZ/2024-09-17-14-21-01/
     RDKit          3D

 30 33  0  0  0  0  0  0  0  0999 V2000
   -7.7129    4.2099   27.0854 C   0  0  0  0  0  0  0  0  0  0  0  0
   -7.7814    5.1722   27.8972 C   0  0  0  0  0  0  0  0  0  0  0  0
   -8.8998    3.8713   26.3707 C   0  0  0  0  0  0  0  0  0  0  0  0
   -8.9563    2.6796   25.5490 C   0  0  0  0  0  0  0  0  0  0  0  0
   -8.8131    6.1334   27.9344 C   0  0  0  0  0  0  0  0  0  0  0  0
   -9.9804    5.8121   27.1929 C   0  0  0  0  0  0  0  0  0  0  0  0
   -9.9861    4.6836   26.4532 C   0  0  0  0  0  0  0  0  0  0  0  0
   -8.3357    1.4961   26.0703 C   0  0  0  0  0  0  0  0  0  0  0  0
   -8.9106    0.5792   26.3336 C   0  0  0  0  0  0  0  0  0  0  0  0
   -8.2434   -0.6431   26.9796 C   0  0  0  0  0  0  0  0  0  0  0  0
   -6.8847   -0.5019   27.2537 C   0  0  0  0  0  0  0  0  0  0  0  0
   -6.2549    0.6828   27.0549 C   0  0  0  0  0  0  0  0  0  0  0  0
   -6.9142    1.7313   26.5737 C   0  0  0  0  0  0  0  0  0  0  0  0
   -4.8673    0.8272   27.5726 C   0  0  0  0  0  0  0  0  0  0  0  0
   -3.8780    0.2719   26.8257 C   0  0  0  0  0  0  0  0  0  0  0  0
   -2.5365    0.3827   27.2506 C   0  0  0  0  0  0  0  0  0  0  0  0
   -1.5885   -0.0672   26.5588 C   0  0  0  0  0  0  0  0  0  0  0  0
   -1.6973   -1.4248   26.2550 C   0  0  0  0  0  0  0  0  0  0  0  0
   -3.0597   -1.8438   25.8114 C   0  0  0  0  0  0  0  0  0  0  0  0
   -4.1648   -1.0475   26.2145 C   0  0  0  0  0  0  0  0  0  0  0  0
   -4.7204    1.6645   28.5862 O   0  0  0  0  0  0  0  0  0  0  0  0
  -11.5132    4.3503   25.4450 Br  0  0  0  0  0  0  0  0  0  0  0  0
   -8.9418   -1.8982   27.2088 C   0  0  0  0  0  0  0  0  0  0  0  0
   -9.1593   -2.7251   26.4438 C   0  0  0  0  0  0  0  0  0  0  0  0
   -8.8126   -2.7471   25.2357 C   0  0  0  0  0  0  0  0  0  0  0  0
   -9.0398   -3.8426   24.2721 C   0  0  0  0  0  0  0  0  0  0  0  0
   -9.7033   -4.8907   24.7903 C   0  0  0  0  0  0  0  0  0  0  0  0
  -10.1217   -4.9670   26.0561 C   0  0  0  0  0  0  0  0  0  0  0  0
   -9.8595   -3.9315   26.9436 C   0  0  0  0  0  0  0  0  0  0  0  0
   -9.2956   -1.8808   28.5859 O   0  0  0  0  0  0  0  0  0  0  0  0
  3  4  1  0
  4  8  1  0
 12 14  1  0
 14 15  1  0
 14 21  2  0
  7 22  1  0
 10 23  1  0
 23 24  1  0
 23 30  2  0
 15 16  2  0
 16 17  1  0
 17 18  2  0
 18 19  1  0
 19 20  2  0
 20 15  1  0
 24 25  2  0
 25 26  1  0
 26 27  2  0
 27 28  1  0
 28 29  2  0
 29 24  1  0
  8  9  2  0
  9 10  1  0
 10 11  2  0
 11 12  1  0
 12 13  2  0
 13  8  1  0
  1  2  2  0
  2  5  1  0
  5  6  2  0
  6  7  1  0
  7  3  2  0
  3  1  1  0
M  END
$$$$
