No_3836-complexes_sdf/6BKW-FPZ/2024-09-17-14-21-01/
     RDKit          3D

 16 17  0  0  0  0  0  0  0  0999 V2000
   -7.7129    4.2099   27.0854 C   0  0  0  0  0  0  0  0  0  0  0  0
   -8.2112    3.0637   26.9225 C   0  0  0  0  0  0  0  0  0  0  0  0
   -7.5138    1.9223   27.4249 C   0  0  0  0  0  0  0  0  0  0  0  0
   -6.5434    4.4363   27.9024 C   0  0  0  0  0  0  0  0  0  0  0  0
   -8.0049    0.5813   27.2334 C   0  0  0  0  0  0  0  0  0  0  0  0
   -5.7705    3.2822   28.1710 C   0  0  0  0  0  0  0  0  0  0  0  0
   -6.2650    2.0456   28.0026 C   0  0  0  0  0  0  0  0  0  0  0  0
   -9.4342    0.3553   27.3900 C   0  0  0  0  0  0  0  0  0  0  0  0
  -10.3104    1.4250   27.6368 C   0  0  0  0  0  0  0  0  0  0  0  0
   -9.7457    2.8305   27.3216 C   0  0  0  0  0  0  0  0  0  0  0  0
  -10.6711    3.9461   27.3929 C   0  0  0  0  0  0  0  0  0  0  0  0
  -11.8271    3.8939   28.0636 C   0  0  0  0  0  0  0  0  0  0  0  0
  -12.7731    4.9782   27.9377 C   0  0  0  0  0  0  0  0  0  0  0  0
  -10.3181    5.1075   26.7158 C   0  0  0  0  0  0  0  0  0  0  0  0
  -12.3267    2.7818   28.8088 C   0  0  0  0  0  0  0  0  0  0  0  0
  -12.0276    1.6156   28.3821 C   0  0  0  0  0  0  0  0  0  0  0  0
 10 11  1  0
 11 12  2  3
 12 13  1  0
 11 14  1  0
 12 15  1  0
 15 16  1  0
  3  5  1  0
  5  8  2  0
  8  9  1  0
  9 10  2  0
 10  2  1  0
  1  2  2  0
  2  3  1  0
  3  7  2  0
  7  6  1  0
  6  4  2  0
  4  1  1  0
M  END
$$$$
