No_3268-complexes_sdf/6BKW-FPZ/2024-09-17-14-21-01/
     RDKit          3D

 21 24  0  0  0  0  0  0  0  0999 V2000
   -7.7129    4.2099   27.0854 C   0  0  0  0  0  0  0  0  0  0  0  0
   -8.9133    4.4736   27.0998 C   0  0  0  0  0  0  0  0  0  0  0  0
   -9.7135    3.9633   26.0300 C   0  0  0  0  0  0  0  0  0  0  0  0
   -6.8420    4.9760   28.0851 C   0  0  0  0  0  0  0  0  0  0  0  0
   -9.9322    2.5915   25.9958 C   0  0  0  0  0  0  0  0  0  0  0  0
  -10.4230    2.0654   24.9049 C   0  0  0  0  0  0  0  0  0  0  0  0
  -10.4976    2.6064   23.9825 C   0  0  0  0  0  0  0  0  0  0  0  0
  -10.4106    4.0564   23.7349 C   0  0  0  0  0  0  0  0  0  0  0  0
   -9.8766    4.7439   24.8532 C   0  0  0  0  0  0  0  0  0  0  0  0
   -8.9949    6.0121   27.3960 C   0  0  0  0  0  0  0  0  0  0  0  0
   -9.5324    3.8402   28.4245 C   0  0  0  0  0  0  0  0  0  0  0  0
   -7.7020    5.9800   28.6984 C   0  0  0  0  0  0  0  0  0  0  0  0
  -11.1122    2.0496   22.5884 C   0  0  2  0  0  0  0  0  0  0  0  0
  -10.3480    1.1563   22.0022 C   0  0  0  0  0  0  0  0  0  0  0  0
   -9.1054    1.2308   22.0687 C   0  0  0  0  0  0  0  0  0  0  0  0
   -8.1907    0.1167   21.6213 C   0  0  0  0  0  0  0  0  0  0  0  0
   -8.7588   -1.0362   21.0835 C   0  0  0  0  0  0  0  0  0  0  0  0
  -10.1486   -1.0322   20.9006 C   0  0  0  0  0  0  0  0  0  0  0  0
  -10.9303   -0.0047   21.4192 C   0  0  0  0  0  0  0  0  0  0  0  0
  -11.4927    3.0936   21.9297 C   0  0  0  0  0  0  0  0  0  0  0  0
  -10.9281    4.5064   22.5537 C   0  0  0  0  0  0  0  0  0  0  0  0
  1  2  1  0
  2  3  1  0
  1  4  1  0
  2 10  1  0
  2 11  1  0
  4 12  1  0
 10 12  1  0
  7 13  1  0
 13 14  1  6
 13 20  1  0
  8 21  1  0
 20 21  2  0
 14 15  2  0
 15 16  1  0
 16 17  2  0
 17 18  1  0
 18 19  2  0
 19 14  1  0
  3  5  2  0
  5  6  1  0
  6  7  2  0
  7  8  1  0
  8  9  2  0
  9  3  1  0
M  END
$$$$
