No_3664-complexes_sdf/6BKW-FPZ/2024-09-17-14-21-01/
     RDKit          3D

 40 45  0  0  0  0  0  0  0  0999 V2000
   -7.2496    3.8871   27.4508 C   0  0  0  0  0  0  0  0  0  0  0  0
   -7.6161    2.7143   27.1523 C   0  0  0  0  0  0  0  0  0  0  0  0
   -8.8302    2.4659   26.5056 C   0  0  0  0  0  0  0  0  0  0  0  0
   -8.1584    5.0090   27.3234 C   0  0  0  0  0  0  0  0  0  0  0  0
   -9.3788    4.7965   26.7695 C   0  0  0  0  0  0  0  0  0  0  0  0
   -9.7028    3.5649   26.3276 C   0  0  0  0  0  0  0  0  0  0  0  0
   -6.7190    1.5585   27.3667 C   0  0  0  0  0  0  0  0  0  0  0  0
   -5.4774    1.7392   28.0696 C   0  0  0  0  0  0  0  0  0  0  0  0
   -4.6135    0.6482   28.2670 C   0  0  0  0  0  0  0  0  0  0  0  0
   -5.0469   -0.6130   27.9764 C   0  0  0  0  0  0  0  0  0  0  0  0
   -7.0614    0.2210   27.1470 C   0  0  0  0  0  0  0  0  0  0  0  0
   -6.3212   -0.7999   27.4648 C   0  0  0  0  0  0  0  0  0  0  0  0
   -7.7197    6.2636   27.7667 O   0  0  0  0  0  0  0  0  0  0  0  0
   -3.0755    0.9606   28.9924 Cl  0  0  0  0  0  0  0  0  0  0  0  0
  -10.9058    3.3811   25.7012 O   0  0  0  0  0  0  0  0  0  0  0  0
  -11.1785    2.3456   24.9326 C   0  0  0  0  0  0  0  0  0  0  0  0
  -11.3702    2.5431   23.7689 C   0  0  0  0  0  0  0  0  0  0  0  0
  -11.5368    1.4525   22.7810 C   0  0  0  0  0  0  0  0  0  0  0  0
  -11.4801    0.1388   23.2578 C   0  0  0  0  0  0  0  0  0  0  0  0
  -11.2333   -0.0290   24.5970 C   0  0  0  0  0  0  0  0  0  0  0  0
  -11.0261    1.0392   25.4611 C   0  0  0  0  0  0  0  0  0  0  0  0
  -11.4088    3.8915   23.0774 C   0  0  0  0  0  0  0  0  0  0  0  0
  -10.6404    4.4359   22.4406 C   0  0  0  0  0  0  0  0  0  0  0  0
  -10.7545    5.8021   21.9206 C   0  0  0  0  0  0  0  0  0  0  0  0
  -12.7122    4.5252   23.4011 C   0  0  0  0  0  0  0  0  0  0  0  0
  -13.6976    3.9169   24.2403 C   0  0  0  0  0  0  0  0  0  0  0  0
  -14.8486    4.6225   24.5806 C   0  0  0  0  0  0  0  0  0  0  0  0
  -15.6996    4.2638   25.6245 C   0  0  0  0  0  0  0  0  0  0  0  0
  -15.4442    2.9865   26.1952 C   0  0  0  0  0  0  0  0  0  0  0  0
  -14.3873    2.2186   25.8286 C   0  0  0  0  0  0  0  0  0  0  0  0
  -13.4786    2.7017   24.9311 C   0  0  0  0  0  0  0  0  0  0  0  0
  -13.7321    1.7976   23.8861 F   0  0  0  0  0  0  0  0  0  0  0  0
  -14.2407    0.9491   26.5435 C   0  0  0  0  0  0  0  0  0  0  0  0
  -13.4728    0.8711   27.6610 C   0  0  0  0  0  0  0  0  0  0  0  0
  -13.3307   -0.3485   28.3617 C   0  0  0  0  0  0  0  0  0  0  0  0
  -13.8567   -1.5095   27.8863 C   0  0  0  0  0  0  0  0  0  0  0  0
  -14.8696   -0.1915   26.1201 C   0  0  0  0  0  0  0  0  0  0  0  0
  -14.6721   -1.4243   26.7590 C   0  0  0  0  0  0  0  0  0  0  0  0
  -12.0329    6.2346   22.1456 C   0  0  0  0  0  0  0  0  0  0  0  0
  -12.9808    5.7279   22.8383 C   0  0  0  0  0  0  0  0  0  0  0  0
  2  7  1  0
  4 13  1  0
  9 14  1  0
  6 15  1  0
 15 16  1  0
 17 22  1  0
 25 26  1  0
 31 32  1  0
 30 33  1  0
  1  2  2  0
  2  3  1  0
  3  6  2  0
  6  5  1  0
  5  4  2  0
  4  1  1  0
 33 34  2  0
 34 35  1  0
 35 36  2  0
 36 38  1  0
 38 37  2  0
 37 33  1  0
 22 23  2  0
 23 24  1  0
 24 39  2  0
 39 40  1  0
 40 25  2  0
 25 22  1  0
 26 27  2  0
 27 28  1  0
 28 29  2  0
 29 30  1  0
 30 31  2  0
 31 26  1  0
  7  8  2  0
  8  9  1  0
  9 10  2  0
 10 12  1  0
 12 11  2  0
 11  7  1  0
 16 17  1  0
 17 18  2  0
 18 19  1  0
 19 20  2  0
 20 21  1  0
 21 16  2  0
M  END
$$$$
