No_3812-complexes_sdf/6BKW-FPZ/2024-09-17-14-21-01/
     RDKit          3D

 24 27  0  0  0  0  0  0  0  0999 V2000
   -7.2496    3.8871   27.4508 C   0  0  0  0  0  0  0  0  0  0  0  0
   -7.9379    4.9063   27.8518 C   0  0  0  0  0  0  0  0  0  0  0  0
   -8.7729    5.5444   27.0168 C   0  0  0  0  0  0  0  0  0  0  0  0
   -7.7708    3.0049   26.4155 C   0  0  0  0  0  0  0  0  0  0  0  0
   -9.3916    4.8208   25.9624 C   0  0  0  0  0  0  0  0  0  0  0  0
   -8.8052    3.5944   25.6431 C   0  0  0  0  0  0  0  0  0  0  0  0
   -9.4401    2.8282   24.5609 C   0  0  0  0  0  0  0  0  0  0  0  0
  -10.4601    3.3951   23.7684 C   0  0  0  0  0  0  0  0  0  0  0  0
  -10.8911    4.7549   24.1279 C   0  0  0  0  0  0  0  0  0  0  0  0
  -10.3426    5.3653   25.1252 C   0  0  0  0  0  0  0  0  0  0  0  0
  -10.9437    2.7232   22.7829 O   0  0  0  0  0  0  0  0  0  0  0  0
  -10.3283    1.9018   22.0304 C   0  0  0  0  0  0  0  0  0  0  0  0
   -7.1527    5.9066   29.1094 Cl  0  0  0  0  0  0  0  0  0  0  0  0
   -9.5646    1.1201   22.5824 C   0  0  0  0  0  0  0  0  0  0  0  0
   -8.8504    1.6526   23.9145 C   0  0  0  0  0  0  0  0  0  0  0  0
   -8.8488   -0.0863   22.1346 C   0  0  0  0  0  0  0  0  0  0  0  0
   -9.4958   -0.8839   21.2079 C   0  0  0  0  0  0  0  0  0  0  0  0
   -9.4672   -1.9050   21.2314 C   0  0  0  0  0  0  0  0  0  0  0  0
   -7.7740   -0.6619   22.8256 C   0  0  0  0  0  0  0  0  0  0  0  0
   -7.3881   -1.9454   22.5663 C   0  0  0  0  0  0  0  0  0  0  0  0
   -8.2331   -2.6598   21.6809 C   0  0  0  0  0  0  0  0  0  0  0  0
   -7.9379   -4.0772   21.3558 C   0  0  0  0  0  0  0  0  0  0  0  0
   -8.6659   -4.6991   20.7066 C   0  0  0  0  0  0  0  0  0  0  0  0
   -9.8882   -4.0910   20.1367 C   0  0  0  0  0  0  0  0  0  0  0  0
  8 11  1  0
 11 12  1  0
  2 13  1  0
 12 14  2  0
  7 15  1  0
 14 15  1  0
 14 16  1  0
 21 22  1  0
 22 23  2  3
 23 24  1  0
  1  2  2  0
  2  3  1  0
  3  5  2  0
  6  4  2  0
  4  1  1  0
  5  6  1  0
  6  7  1  0
  7  8  2  0
  8  9  1  0
  9 10  2  0
 10  5  1  0
 16 17  2  0
 17 18  1  0
 18 21  2  0
 21 20  1  0
 20 19  2  0
 19 16  1  0
M  END
$$$$
