No_3621-complexes_sdf/6BKW-FPZ/2024-09-17-14-21-01/
     RDKit          3D

 20 21  0  0  0  0  0  0  0  0999 V2000
   -7.2496    3.8871   27.4508 C   0  0  0  0  0  0  0  0  0  0  0  0
   -8.5096    4.0291   27.2770 C   0  0  0  0  0  0  0  0  0  0  0  0
   -9.3502    2.8685   26.8763 C   0  0  0  0  0  0  0  0  0  0  0  0
   -6.6288    2.5513   27.4938 C   0  0  0  0  0  0  0  0  0  0  0  0
   -7.4365    1.4714   27.2032 C   0  0  0  0  0  0  0  0  0  0  0  0
   -8.7772    1.6579   26.9338 C   0  0  0  0  0  0  0  0  0  0  0  0
   -9.1078    5.3660   27.2249 C   0  0  1  0  0  0  0  0  0  0  0  0
  -10.2958    5.7490   27.6549 C   0  0  0  0  0  0  0  0  0  0  0  0
   -8.1994    6.4536   26.7901 C   0  0  0  0  0  0  0  0  0  0  0  0
   -8.5673    7.8101   26.7758 C   0  0  0  0  0  0  0  0  0  0  0  0
   -6.8166    0.1569   27.2226 C   0  0  0  0  0  0  0  0  0  0  0  0
   -5.6297   -0.0666   27.8469 C   0  0  0  0  0  0  0  0  0  0  0  0
   -4.9699   -1.3335   27.8611 C   0  0  0  0  0  0  0  0  0  0  0  0
   -5.6069   -2.3166   27.1079 C   0  0  0  0  0  0  0  0  0  0  0  0
   -7.2421   -0.9852   26.6001 C   0  0  0  0  0  0  0  0  0  0  0  0
   -6.7282   -1.9825   26.5720 C   0  0  0  0  0  0  0  0  0  0  0  0
  -11.0928    4.7301   27.9995 N   0  0  0  0  0  0  0  0  0  0  0  0
  -12.3001    4.3080   27.6665 C   0  0  0  0  0  0  0  0  0  0  0  0
  -12.8909    4.8992   26.5513 C   0  0  0  0  0  0  0  0  0  0  0  0
  -14.2338    4.4642   26.1773 C   0  0  0  0  0  0  0  0  0  0  0  0
  2  7  1  0
  7  8  1  1
  7  9  1  0
  9 10  2  0
  5 11  1  0
  8 17  1  0
 17 18  1  0
 18 19  2  3
 19 20  1  0
  1  2  2  0
  2  3  1  0
  3  6  2  0
  6  5  1  0
  5  4  2  0
  4  1  1  0
 11 12  2  0
 12 13  1  0
 13 14  2  0
 14 16  1  0
 16 15  2  0
 15 11  1  0
M  END
$$$$
