No_3962-complexes_sdf/6BKW-FPZ/2024-09-17-14-21-01/
     RDKit          3D

 33 35  0  0  0  0  0  0  0  0999 V2000
   -7.9040    3.9820   27.1177 C   0  0  0  0  0  0  0  0  0  0  0  0
   -8.2057    2.8231   26.8733 C   0  0  0  0  0  0  0  0  0  0  0  0
   -8.7695    5.0740   26.7916 C   0  0  0  0  0  0  0  0  0  0  0  0
   -9.7466    4.9191   26.3183 C   0  0  0  0  0  0  0  0  0  0  0  0
   -9.4594    2.5453   26.2990 C   0  0  0  0  0  0  0  0  0  0  0  0
  -10.2402    3.6028   25.9953 C   0  0  0  0  0  0  0  0  0  0  0  0
   -8.2275    6.4930   27.1466 C   0  0  0  0  0  0  0  0  0  0  0  0
   -8.7047    7.5491   26.5989 N   0  0  0  0  0  0  0  0  0  0  0  0
   -7.4533    6.5763   28.2830 N   0  0  0  0  0  0  0  0  0  0  0  0
   -7.3324    1.6343   27.2299 C   0  0  0  0  0  0  0  0  0  0  0  0
   -6.2053    1.8629   27.7898 O   0  0  0  0  0  0  0  0  0  0  0  0
   -7.7550    0.3892   27.1271 N   0  0  0  0  0  0  0  0  0  0  0  0
   -6.9373   -0.7708   27.5546 C   0  0  0  0  0  0  0  0  0  0  0  0
   -6.5545   -1.3514   26.7059 C   0  0  0  0  0  0  0  0  0  0  0  0
   -5.6351   -2.5219   26.9884 C   0  0  0  0  0  0  0  0  0  0  0  0
   -5.3268   -2.8249   28.3216 C   0  0  0  0  0  0  0  0  0  0  0  0
   -5.9400   -1.9873   29.3047 C   0  0  0  0  0  0  0  0  0  0  0  0
   -6.6914   -0.9157   28.9765 C   0  0  0  0  0  0  0  0  0  0  0  0
   -5.6085   -2.2039   30.7770 C   0  0  0  0  0  0  0  0  0  0  0  0
   -6.5887   -2.6567   31.6261 C   0  0  0  0  0  0  0  0  0  0  0  0
   -6.4077   -2.5493   33.0163 C   0  0  0  0  0  0  0  0  0  0  0  0
   -5.1416   -2.1534   33.5160 C   0  0  0  0  0  0  0  0  0  0  0  0
   -4.1446   -1.7426   32.6424 C   0  0  0  0  0  0  0  0  0  0  0  0
   -4.3673   -1.6698   31.2448 C   0  0  0  0  0  0  0  0  0  0  0  0
   -3.3116   -1.1330   30.4386 C   0  0  0  0  0  0  0  0  0  0  0  0
   -2.5971   -1.0912   29.5296 C   0  0  0  0  0  0  0  0  0  0  0  0
   -1.6095   -1.9106   28.9981 C   0  0  0  0  0  0  0  0  0  0  0  0
   -1.4727   -2.1224   27.9799 C   0  0  0  0  0  0  0  0  0  0  0  0
   -1.9342   -1.1300   26.8993 C   0  0  0  0  0  0  0  0  0  0  0  0
   -2.7357   -0.0964   27.3541 C   0  0  0  0  0  0  0  0  0  0  0  0
   -3.0784   -0.0682   28.6902 C   0  0  2  0  0  0  0  0  0  0  0  0
   -3.9464    0.8783   29.1103 O   0  0  0  0  0  0  0  0  0  0  0  0
   -2.2690    0.8996   28.9554 F   0  0  0  0  0  0  0  0  0  0  0  0
  3  7  1  0
  7  8  2  0
  7  9  1  0
  2 10  1  0
 10 11  2  0
 10 12  1  0
 12 13  1  0
 17 19  1  0
 24 25  1  0
 25 26  3  0
 26 27  1  0
 27 28  2  3
 28 29  1  0
 29 30  2  3
 30 31  1  0
 31 32  1  6
 31 33  1  0
 13 14  2  0
 14 15  1  0
 15 16  2  0
 16 17  1  0
 17 18  2  0
 18 13  1  0
  1  2  2  0
  2  5  1  0
  5  6  2  0
  6  4  1  0
  4  3  2  0
  3  1  1  0
 19 20  2  0
 20 21  1  0
 21 22  2  0
 22 23  1  0
 23 24  2  0
 24 19  1  0
M  END
$$$$
