No_3889-complexes_sdf/6BKW-FPZ/2024-09-17-14-21-01/
     RDKit          3D

 25 27  0  0  0  0  0  0  0  0999 V2000
   -7.9040    3.9820   27.1177 C   0  0  0  0  0  0  0  0  0  0  0  0
   -7.8663    4.8694   27.9238 C   0  0  0  0  0  0  0  0  0  0  0  0
   -9.0501    3.8017   26.2617 C   0  0  0  0  0  0  0  0  0  0  0  0
  -10.0189    4.7608   26.3707 C   0  0  0  0  0  0  0  0  0  0  0  0
   -8.6973    5.9722   27.8968 C   0  0  0  0  0  0  0  0  0  0  0  0
   -9.8216    5.8946   27.1241 C   0  0  0  0  0  0  0  0  0  0  0  0
   -9.1445    2.6271   25.4265 C   0  0  0  0  0  0  0  0  0  0  0  0
   -8.6427    1.4143   25.8470 C   0  0  0  0  0  0  0  0  0  0  0  0
   -8.0876    1.3390   27.2037 C   0  0  0  0  0  0  0  0  0  0  0  0
   -7.3971    2.6149   27.6326 C   0  0  0  0  0  0  0  0  0  0  0  0
   -9.9872    2.6999   24.2597 C   0  0  0  0  0  0  0  0  0  0  0  0
  -10.8714    3.9338   23.7668 P   0  0  1  0  0  0  0  0  0  0  0  0
  -12.1618    3.7642   24.2163 O   0  0  0  0  0  0  0  0  0  0  0  0
  -10.3154    5.1825   24.4233 O   0  0  0  0  0  0  0  0  0  0  0  0
  -11.3627    4.1857   26.7971 C   0  0  0  0  0  0  0  0  0  0  0  0
  -10.7372    4.0739   22.2876 O   0  0  0  0  0  0  0  0  0  0  0  0
  -12.8302    3.1363   24.9693 C   0  0  2  0  0  0  0  0  0  0  0  0
  -14.1445    2.8725   24.7470 C   0  0  0  0  0  0  0  0  0  0  0  0
  -12.4135    3.2960   26.4066 C   0  0  1  0  0  0  0  0  0  0  0  0
  -12.8449    2.2832   27.3003 C   0  0  0  0  0  0  0  0  0  0  0  0
  -12.6247    1.2984   27.5790 C   0  0  0  0  0  0  0  0  0  0  0  0
  -12.6388    0.4786   28.3640 C   0  0  0  0  0  0  0  0  0  0  0  0
  -11.9689   -0.8480   28.5238 C   0  0  0  0  0  0  0  0  0  0  0  0
  -11.1754   -1.1698   27.4807 C   0  0  0  0  0  0  0  0  0  0  0  0
  -11.0343   -0.4240   26.3967 C   0  0  0  0  0  0  0  0  0  0  0  0
  7 11  1  0
 11 12  1  0
 12 13  1  0
 12 14  1  1
  4 15  1  0
 12 16  2  0
 13 17  1  0
 17 18  1  1
 19 15  1  6
 17 19  1  0
 19 20  1  0
 20 21  2  3
 21 22  1  0
 22 23  2  3
 23 24  1  0
 24 25  2  0
  3  7  1  0
  7  8  2  0
  8  9  1  0
  9 10  2  0
 10  1  1  0
  1  2  2  0
  2  5  1  0
  5  6  2  0
  6  4  1  0
  4  3  2  0
  3  1  1  0
M  END
$$$$
