No_3533-complexes_sdf/6BKW-FPZ/2024-09-17-14-21-01/
     RDKit          3D

 15 16  0  0  0  0  0  0  0  0999 V2000
   -7.2496    3.8871   27.4508 C   0  0  0  0  0  0  0  0  0  0  0  0
   -7.6161    2.7143   27.1523 C   0  0  0  0  0  0  0  0  0  0  0  0
   -6.9719    1.5838   27.5324 C   0  0  0  0  0  0  0  0  0  0  0  0
   -7.4590    0.2827   27.2615 C   0  0  0  0  0  0  0  0  0  0  0  0
   -8.7521    2.5117   26.3068 C   0  0  0  0  0  0  0  0  0  0  0  0
   -9.5643    3.6334   25.9825 C   0  0  0  0  0  0  0  0  0  0  0  0
   -8.0314    5.1004   27.2112 C   0  0  0  0  0  0  0  0  0  0  0  0
   -9.1347    4.9790   26.3962 C   0  0  0  0  0  0  0  0  0  0  0  0
   -7.6094    6.4135   27.7161 C   0  0  0  0  0  0  0  0  0  0  0  0
   -6.7094   -0.8382   27.6083 C   0  0  0  0  0  0  0  0  0  0  0  0
   -5.4497   -0.6282   28.1897 C   0  0  0  0  0  0  0  0  0  0  0  0
   -4.8773    0.6123   28.3781 C   0  0  0  0  0  0  0  0  0  0  0  0
   -5.5915    1.6753   28.0408 C   0  0  0  0  0  0  0  0  0  0  0  0
  -10.6844    3.5209   25.0705 C   0  0  0  0  0  0  0  0  0  0  0  0
  -11.9373    3.5026   25.6005 C   0  0  0  0  0  0  0  0  0  0  0  0
  2  3  1  0
  7  9  1  0
  6 14  1  0
 14 15  2  0
  3  4  2  0
  4 10  1  0
 10 11  2  0
 11 12  1  0
 12 13  2  0
 13  3  1  0
  1  2  2  0
  2  5  1  0
  5  6  2  0
  6  8  1  0
  8  7  2  0
  7  1  1  0
M  END
$$$$
