No_3484-complexes_sdf/6BKW-FPZ/2024-09-17-14-21-01/
     RDKit          3D

 21 22  0  0  0  0  0  0  0  0999 V2000
   -7.2496    3.8871   27.4508 C   0  0  0  0  0  0  0  0  0  0  0  0
   -7.9379    4.9063   27.8518 C   0  0  0  0  0  0  0  0  0  0  0  0
   -8.7729    5.5444   27.0168 C   0  0  0  0  0  0  0  0  0  0  0  0
   -7.7708    3.0049   26.4155 C   0  0  0  0  0  0  0  0  0  0  0  0
   -9.3916    4.8208   25.9624 C   0  0  0  0  0  0  0  0  0  0  0  0
   -8.8052    3.5944   25.6431 C   0  0  0  0  0  0  0  0  0  0  0  0
   -9.3907    2.6831   24.6925 C   0  0  0  0  0  0  0  0  0  0  0  0
  -10.2334    3.2188   23.7102 C   0  0  0  0  0  0  0  0  0  0  0  0
  -10.7247    2.4163   22.6520 C   0  0  0  0  0  0  0  0  0  0  0  0
  -10.2127    1.0713   22.5674 C   0  0  0  0  0  0  0  0  0  0  0  0
   -9.3559    0.5662   23.5345 C   0  0  0  0  0  0  0  0  0  0  0  0
   -8.8800    1.3942   24.5545 C   0  0  0  0  0  0  0  0  0  0  0  0
   -7.3648    5.7269   28.8416 O   0  0  0  0  0  0  0  0  0  0  0  0
  -10.6634    0.3216   21.5597 F   0  0  0  0  0  0  0  0  0  0  0  0
   -8.8878   -0.8272   23.3710 C   0  0  0  0  0  0  0  0  0  0  0  0
   -7.8321   -1.0606   22.6070 C   0  0  0  0  0  0  0  0  0  0  0  0
   -7.4537   -2.3717   22.2049 C   0  0  0  0  0  0  0  0  0  0  0  0
   -6.3908   -2.5720   21.3448 C   0  0  0  0  0  0  0  0  0  0  0  0
   -6.1915   -3.7717   20.7183 C   0  0  0  0  0  0  0  0  0  0  0  0
   -6.9345   -4.8135   21.0591 C   0  0  0  0  0  0  0  0  0  0  0  0
   -7.9506   -4.6727   21.9569 C   0  0  0  0  0  0  0  0  0  0  0  0
  6  7  1  0
  2 13  1  0
 10 14  1  0
 11 15  1  0
 15 16  1  0
 16 17  2  3
 17 18  1  0
 18 19  1  0
 19 20  2  3
 20 21  1  0
  1  2  2  0
  2  3  1  0
  3  5  2  0
  5  6  1  0
  6  4  2  0
  4  1  1  0
  7  8  2  0
  8  9  1  0
  9 10  2  0
 10 11  1  0
 11 12  2  0
 12  7  1  0
M  END
$$$$
