No_3246-complexes_sdf/6BKW-FPZ/2024-09-17-14-21-01/
     RDKit          3D

 30 33  0  0  0  0  0  0  0  0999 V2000
   -7.2496    3.8871   27.4508 C   0  0  0  0  0  0  0  0  0  0  0  0
   -7.6161    2.7143   27.1523 C   0  0  0  0  0  0  0  0  0  0  0  0
   -8.8302    2.4659   26.5056 C   0  0  0  0  0  0  0  0  0  0  0  0
   -8.1584    5.0090   27.3234 C   0  0  0  0  0  0  0  0  0  0  0  0
   -9.3788    4.7965   26.7695 C   0  0  0  0  0  0  0  0  0  0  0  0
   -9.7028    3.5649   26.3276 C   0  0  0  0  0  0  0  0  0  0  0  0
   -6.5995    1.7837   27.4559 N   0  0  0  0  0  0  0  0  0  0  0  0
   -6.8297    0.4423   27.6285 C   0  0  0  0  0  0  0  0  0  0  0  0
   -5.6771   -0.3145   28.0713 C   0  0  0  0  0  0  0  0  0  0  0  0
   -4.6765    0.7408   28.1712 C   0  0  1  0  0  0  0  0  0  0  0  0
   -5.2988    2.0150   27.9087 C   0  0  0  0  0  0  0  0  0  0  0  0
   -7.7540    6.2795   27.7529 N   0  0  0  0  0  0  0  0  0  0  0  0
   -3.3210    0.6205   28.6748 C   0  0  0  0  0  0  0  0  0  0  0  0
   -2.4690   -0.0001   27.7443 C   0  0  0  0  0  0  0  0  0  0  0  0
   -2.7846   -1.1650   27.1955 C   0  0  0  0  0  0  0  0  0  0  0  0
   -3.3831   -1.9587   27.5392 C   0  0  0  0  0  0  0  0  0  0  0  0
   -4.9061   -2.1221   27.4604 C   0  0  1  0  0  0  0  0  0  0  0  0
   -5.9899   -1.3911   28.8183 C   0  0  0  0  0  0  0  0  0  0  0  0
   -5.8260   -2.5664   26.2485 C   0  0  1  0  0  0  0  0  0  0  0  0
   -5.6195   -2.1734   25.1885 C   0  0  0  0  0  0  0  0  0  0  0  0
   -6.4604   -2.3655   24.0694 C   0  0  0  0  0  0  0  0  0  0  0  0
   -6.2898   -1.6839   22.8654 C   0  0  0  0  0  0  0  0  0  0  0  0
   -7.2179   -0.7535   22.5301 C   0  0  0  0  0  0  0  0  0  0  0  0
   -8.4813   -1.0129   21.8205 C   0  0  0  0  0  0  0  0  0  0  0  0
   -9.4119   -0.0173   21.5525 C   0  0  0  0  0  0  0  0  0  0  0  0
   -9.1641    1.2939   22.0604 C   0  0  0  0  0  0  0  0  0  0  0  0
   -8.0091    1.5035   22.9118 C   0  0  0  0  0  0  0  0  0  0  0  0
   -7.1172    0.5625   23.1520 C   0  0  0  0  0  0  0  0  0  0  0  0
   -6.7410   -3.5082   26.7125 C   0  0  0  0  0  0  0  0  0  0  0  0
   -7.6715   -3.7703   25.6061 C   0  0  0  0  0  0  0  0  0  0  0  0
  2  7  1  0
  7  8  1  0
  8  9  2  0
  9 10  1  0
  7 11  1  0
 10 11  1  1
  4 12  1  0
 10 13  1  0
 13 14  1  0
 14 15  1  0
 15 16  2  3
 16 17  1  0
  9 18  1  0
 17 18  1  6
 17 19  1  0
 19 20  1  0
 20 21  2  3
 21 22  1  0
 22 23  1  0
 19 29  1  6
 29 30  2  0
 23 24  2  0
 24 25  1  0
 25 26  2  0
 26 27  1  0
 27 28  2  0
 28 23  1  0
  1  2  2  0
  2  3  1  0
  3  6  2  0
  6  5  1  0
  5  4  2  0
  4  1  1  0
M  END
$$$$
