No_3813-complexes_sdf/6BKW-FPZ/2024-09-17-14-21-01/
     RDKit          3D

 24 27  0  0  0  0  0  0  0  0999 V2000
   -7.2496    3.8871   27.4508 C   0  0  0  0  0  0  0  0  0  0  0  0
   -8.5096    4.0291   27.2770 C   0  0  0  0  0  0  0  0  0  0  0  0
   -9.2669    5.1645   27.5845 C   0  0  0  0  0  0  0  0  0  0  0  0
  -10.6621    5.2321   27.4284 C   0  0  0  0  0  0  0  0  0  0  0  0
   -9.4015    2.8584   27.0493 C   0  0  0  0  0  0  0  0  0  0  0  0
  -10.7403    2.9034   26.9017 C   0  0  0  0  0  0  0  0  0  0  0  0
  -11.4138    4.1390   27.1285 C   0  0  0  0  0  0  0  0  0  0  0  0
   -6.5209    4.9713   28.0212 C   0  0  0  0  0  0  0  0  0  0  0  0
   -7.2418    6.2014   28.1937 C   0  0  0  0  0  0  0  0  0  0  0  0
   -8.5437    6.3073   27.9907 C   0  0  0  0  0  0  0  0  0  0  0  0
   -8.7159    1.5164   26.8379 C   0  0  0  0  0  0  0  0  0  0  0  0
   -7.6109    1.3807   26.2571 C   0  0  0  0  0  0  0  0  0  0  0  0
   -9.3627    0.4015   27.4359 C   0  0  0  0  0  0  0  0  0  0  0  0
   -7.1095    0.0934   25.9507 C   0  0  0  0  0  0  0  0  0  0  0  0
   -8.8676   -0.8898   27.3125 C   0  0  0  0  0  0  0  0  0  0  0  0
   -7.6980   -1.0124   26.5800 C   0  0  0  0  0  0  0  0  0  0  0  0
  -12.8604    4.1781   27.0712 C   0  0  0  0  0  0  0  0  0  0  0  0
  -13.5023    4.0814   25.9039 C   0  0  0  0  0  0  0  0  0  0  0  0
  -12.8582    3.8288   24.7527 C   0  0  0  0  0  0  0  0  0  0  0  0
  -13.5225    3.9161   23.5092 C   0  0  0  0  0  0  0  0  0  0  0  0
  -14.9072    4.3068   25.8576 C   0  0  0  0  0  0  0  0  0  0  0  0
  -15.5936    4.4235   24.6299 C   0  0  0  0  0  0  0  0  0  0  0  0
  -14.8540    4.2210   23.4682 C   0  0  0  0  0  0  0  0  0  0  0  0
  -13.4533    4.4014   28.2572 O   0  0  0  0  0  0  0  0  0  0  0  0
  5 11  1  0
  7 17  1  0
 17 18  1  0
 17 24  2  0
 11 12  2  0
 12 14  1  0
 14 16  2  0
 16 15  1  0
 15 13  2  0
 13 11  1  0
 18 19  2  0
 19 20  1  0
 20 23  2  0
 23 22  1  0
 22 21  2  0
 21 18  1  0
  1  2  2  0
  3 10  2  0
 10  9  1  0
  9  8  2  0
  8  1  1  0
  2  3  1  0
  3  4  1  0
  4  7  2  0
  7  6  1  0
  6  5  2  0
  5  2  1  0
M  END
$$$$
