No_3177-complexes_sdf/6BKW-FPZ/2024-09-17-14-21-01/
     RDKit          3D

 21 23  0  0  0  0  0  0  0  0999 V2000
   -7.9040    3.9820   27.1177 C   0  0  0  0  0  0  0  0  0  0  0  0
   -7.8663    4.8694   27.9238 C   0  0  0  0  0  0  0  0  0  0  0  0
   -9.0806    3.1428   27.1220 C   0  0  0  0  0  0  0  0  0  0  0  0
   -9.1366    1.9856   26.2314 C   0  0  0  0  0  0  0  0  0  0  0  0
   -8.9896    5.4789   28.4964 C   0  0  0  0  0  0  0  0  0  0  0  0
  -10.1971    4.7487   28.3835 C   0  0  0  0  0  0  0  0  0  0  0  0
  -10.2153    3.6197   27.6096 C   0  0  0  0  0  0  0  0  0  0  0  0
   -8.7057    1.9626   25.1656 C   0  0  0  0  0  0  0  0  0  0  0  0
   -8.7345    0.8318   24.2239 C   0  0  0  0  0  0  0  0  0  0  0  0
   -9.1104   -0.3541   24.7501 C   0  0  0  0  0  0  0  0  0  0  0  0
   -9.5367    0.7041   26.8036 C   0  0  0  0  0  0  0  0  0  0  0  0
   -9.5353   -0.4054   26.0970 C   0  0  0  0  0  0  0  0  0  0  0  0
  -10.0023   -1.7183   26.6420 C   0  0  1  0  0  0  0  0  0  0  0  0
   -9.3455   -2.3062   27.6489 C   0  0  0  0  0  0  0  0  0  0  0  0
   -8.0612   -2.1890   27.8205 C   0  0  0  0  0  0  0  0  0  0  0  0
   -7.3880   -2.7927   29.0132 C   0  0  0  0  0  0  0  0  0  0  0  0
   -6.0091   -2.5293   29.3135 C   0  0  0  0  0  0  0  0  0  0  0  0
   -5.4734   -1.6865   28.8394 C   0  0  0  0  0  0  0  0  0  0  0  0
   -5.9738   -0.8103   27.7466 C   0  0  0  0  0  0  0  0  0  0  0  0
   -7.2764   -1.0519   27.3731 C   0  0  0  0  0  0  0  0  0  0  0  0
  -11.2298   -2.1480   26.1187 C   0  0  0  0  0  0  0  0  0  0  0  0
  3  4  1  0
 12 13  1  0
 13 14  1  0
 13 21  1  1
 14 15  1  0
 15 16  2  0
 16 17  1  0
 17 18  2  0
 18 19  1  0
 19 20  2  0
 20 15  1  0
  4  8  2  0
  8  9  1  0
  9 10  2  0
 10 12  1  0
 12 11  2  0
 11  4  1  0
  1  2  2  0
  2  5  1  0
  5  6  2  0
  6  7  1  0
  7  3  2  0
  3  1  1  0
M  END
$$$$
