No_3844-complexes_sdf/6BKW-FPZ/2024-09-17-14-21-01/
     RDKit          3D

 17 18  0  0  0  0  0  0  0  0999 V2000
   -7.9040    3.9820   27.1177 C   0  0  0  0  0  0  0  0  0  0  0  0
   -9.0711    4.3164   27.0630 C   0  0  0  0  0  0  0  0  0  0  0  0
   -9.9692    3.7224   26.1073 C   0  0  0  0  0  0  0  0  0  0  0  0
   -7.4776    2.6994   26.6283 C   0  0  0  0  0  0  0  0  0  0  0  0
   -8.4406    1.9440   25.9776 C   0  0  0  0  0  0  0  0  0  0  0  0
   -9.6379    2.5001   25.6881 C   0  0  0  0  0  0  0  0  0  0  0  0
   -6.7701    4.7886   28.1891 Cl  0  0  0  0  0  0  0  0  0  0  0  0
  -10.5973    1.7372   24.8197 C   0  0  0  0  0  0  0  0  0  0  0  0
  -10.8736    2.1481   23.6065 C   0  0  0  0  0  0  0  0  0  0  0  0
  -10.9675    3.3463   23.2672 C   0  0  0  0  0  0  0  0  0  0  0  0
  -11.2273    3.8730   21.8905 C   0  0  0  0  0  0  0  0  0  0  0  0
  -11.2429    2.9267   20.9144 C   0  0  0  0  0  0  0  0  0  0  0  0
  -11.0814    1.5702   21.2313 C   0  0  0  0  0  0  0  0  0  0  0  0
  -10.8572    1.2058   22.4823 C   0  0  0  0  0  0  0  0  0  0  0  0
  -11.1344    0.5425   25.3697 C   0  0  0  0  0  0  0  0  0  0  0  0
  -12.4828    0.6091   25.7048 C   0  0  0  0  0  0  0  0  0  0  0  0
  -13.0708   -0.5569   26.2661 C   0  0  0  0  0  0  0  0  0  0  0  0
  1  7  1  0
  6  8  1  0
  8  9  1  0
  8 15  1  0
 15 16  2  3
 16 17  1  0
  1  2  2  0
  2  3  1  0
  3  6  2  0
  6  5  1  0
  5  4  2  0
  4  1  1  0
  9 10  2  0
 10 11  1  0
 11 12  2  0
 12 13  1  0
 13 14  2  0
 14  9  1  0
M  END
$$$$
