No_3681-complexes_sdf/6BKW-FPZ/2024-09-17-14-21-01/
     RDKit          3D

 38 42  0  0  0  0  0  0  0  0999 V2000
   -7.2496    3.8871   27.4508 C   0  0  0  0  0  0  0  0  0  0  0  0
   -8.5096    4.0291   27.2770 C   0  0  0  0  0  0  0  0  0  0  0  0
   -9.3502    2.8685   26.8763 C   0  0  0  0  0  0  0  0  0  0  0  0
   -6.6288    2.5513   27.4938 C   0  0  0  0  0  0  0  0  0  0  0  0
   -7.4365    1.4714   27.2032 C   0  0  0  0  0  0  0  0  0  0  0  0
   -8.7772    1.6579   26.9338 C   0  0  0  0  0  0  0  0  0  0  0  0
   -9.1119    5.3743   27.2229 C   0  0  0  0  0  0  0  0  0  0  0  0
  -10.3508    5.4296   27.6019 F   0  0  0  0  0  0  0  0  0  0  0  0
   -9.0028    5.9609   25.9823 F   0  0  0  0  0  0  0  0  0  0  0  0
   -8.3639    6.3043   27.9758 F   0  0  0  0  0  0  0  0  0  0  0  0
   -6.7913    0.1899   27.1697 C   0  0  0  0  0  0  0  0  0  0  0  0
   -5.5840   -0.0564   27.8234 C   0  0  0  0  0  0  0  0  0  0  0  0
   -4.9623   -1.3201   27.8347 C   0  0  0  0  0  0  0  0  0  0  0  0
   -5.5738   -2.2887   27.0480 C   0  0  0  0  0  0  0  0  0  0  0  0
   -7.2208   -0.9437   26.5549 C   0  0  0  0  0  0  0  0  0  0  0  0
   -8.5884   -0.7029   25.8711 C   0  0  0  0  0  0  0  0  0  0  0  0
   -6.6762   -2.1116   26.4531 C   0  0  0  0  0  0  0  0  0  0  0  0
   -9.3642    0.5594   26.1765 C   0  0  1  0  0  0  0  0  0  0  0  0
  -10.8227    0.5125   26.0093 C   0  0  0  0  0  0  0  0  0  0  0  0
  -11.1770    0.4626   24.8265 C   0  0  0  0  0  0  0  0  0  0  0  0
  -12.5659    0.6534   24.5251 C   0  0  0  0  0  0  0  0  0  0  0  0
  -13.4056    0.8073   25.5640 C   0  0  0  0  0  0  0  0  0  0  0  0
  -12.9744    0.9422   26.8713 C   0  0  0  0  0  0  0  0  0  0  0  0
  -11.6109    0.8331   27.1469 C   0  0  0  0  0  0  0  0  0  0  0  0
   -9.0644   -1.4403   24.9970 O   0  0  0  0  0  0  0  0  0  0  0  0
   -3.6737   -1.4561   28.5817 C   0  0  0  0  0  0  0  0  0  0  0  0
   -2.5809   -0.9715   28.0099 C   0  0  0  0  0  0  0  0  0  0  0  0
   -3.6556   -2.0995   29.8550 C   0  0  0  0  0  0  0  0  0  0  0  0
   -4.5291   -1.9614   30.7138 C   0  0  0  0  0  0  0  0  0  0  0  0
   -4.9124   -0.7721   31.2711 C   0  0  0  0  0  0  0  0  0  0  0  0
   -5.8700   -0.6170   32.3503 C   0  0  0  0  0  0  0  0  0  0  0  0
   -6.4455   -1.7982   32.8715 C   0  0  0  0  0  0  0  0  0  0  0  0
   -6.1623   -2.9942   32.3331 C   0  0  0  0  0  0  0  0  0  0  0  0
   -5.2034   -3.1072   31.3235 C   0  0  0  0  0  0  0  0  0  0  0  0
   -2.5194    0.4230   27.6783 C   0  0  0  0  0  0  0  0  0  0  0  0
   -1.4467   -1.7782   27.7295 C   0  0  0  0  0  0  0  0  0  0  0  0
   -1.6021    0.9460   26.8764 O   0  0  0  0  0  0  0  0  0  0  0  0
   -3.2349    1.3230   28.3373 O   0  0  0  0  0  0  0  0  0  0  0  0
  2  7  1  0
  7  8  1  0
  7  9  1  0
  7 10  1  0
  5 11  1  0
 15 16  1  0
  6 18  1  0
 16 18  1  0
 18 19  1  1
 16 25  2  0
 13 26  1  0
 26 27  1  0
 26 28  1  0
 28 29  1  0
 27 35  1  0
 27 36  1  0
 35 37  2  0
 35 38  1  0
  1  2  2  0
  2  3  1  0
  3  6  2  0
  6  5  1  0
  5  4  2  0
  4  1  1  0
 19 20  2  0
 20 21  1  0
 21 22  2  0
 22 23  1  0
 23 24  2  0
 24 19  1  0
 11 12  2  0
 12 13  1  0
 13 14  2  0
 14 17  1  0
 17 15  2  0
 15 11  1  0
 29 30  2  0
 30 31  1  0
 31 32  2  0
 32 33  1  0
 33 34  2  0
 34 29  1  0
M  END
$$$$
