No_3988-complexes_sdf/6BKW-FPZ/2024-09-17-14-21-01/
     RDKit          3D

 17 19  0  0  0  0  0  0  0  0999 V2000
   -7.9040    3.9820   27.1177 C   0  0  0  0  0  0  0  0  0  0  0  0
   -7.8663    4.8694   27.9238 C   0  0  0  0  0  0  0  0  0  0  0  0
   -9.0501    3.8017   26.2617 C   0  0  0  0  0  0  0  0  0  0  0  0
  -10.0189    4.7608   26.3707 C   0  0  0  0  0  0  0  0  0  0  0  0
   -8.6770    5.9780   27.9222 C   0  0  0  0  0  0  0  0  0  0  0  0
   -9.8040    5.8752   27.0958 C   0  0  0  0  0  0  0  0  0  0  0  0
   -9.1518    2.6191   25.4170 C   0  0  0  0  0  0  0  0  0  0  0  0
  -10.0296    2.6872   24.3367 C   0  0  0  0  0  0  0  0  0  0  0  0
  -10.5554    2.2052   23.6326 C   0  0  0  0  0  0  0  0  0  0  0  0
  -11.3797    2.6205   22.4593 C   0  0  0  0  0  0  0  0  0  0  0  0
  -11.3710    3.7312   22.3290 C   0  0  0  0  0  0  0  0  0  0  0  0
  -10.7429    4.7565   23.1008 C   0  0  0  0  0  0  0  0  0  0  0  0
   -9.9592    4.2834   24.1581 C   0  0  0  0  0  0  0  0  0  0  0  0
   -9.9535    5.1570   25.1673 N   0  0  0  0  0  0  0  0  0  0  0  0
   -8.5933    1.3183   25.8071 C   0  0  0  0  0  0  0  0  0  0  0  0
   -7.9479    0.7161   25.0108 O   0  0  0  0  0  0  0  0  0  0  0  0
   -8.7009    1.0176   27.0351 F   0  0  0  0  0  0  0  0  0  0  0  0
  7 15  1  0
 15 16  2  0
 15 17  1  0
  4 14  2  0
 14 13  1  0
  8  7  1  0
  7  3  2  0
  8  9  2  0
  9 10  1  0
 10 11  2  0
 11 12  1  0
 12 13  2  0
 13  8  1  0
  1  2  2  0
  2  5  1  0
  5  6  2  0
  6  4  1  0
  4  3  1  0
  3  1  1  0
M  END
$$$$
