No_3740-complexes_sdf/6BKW-FPZ/2024-09-17-14-21-01/
     RDKit          3D

 20 22  0  0  0  0  0  0  0  0999 V2000
   -7.7129    4.2099   27.0854 C   0  0  0  0  0  0  0  0  0  0  0  0
   -8.2112    3.0637   26.9225 C   0  0  0  0  0  0  0  0  0  0  0  0
   -8.5108    5.3904   26.9436 C   0  0  0  0  0  0  0  0  0  0  0  0
   -9.7256    5.1955   26.3518 C   0  0  0  0  0  0  0  0  0  0  0  0
   -9.4995    2.8258   26.4878 C   0  0  0  0  0  0  0  0  0  0  0  0
  -10.2542    3.9691   26.2055 C   0  0  0  0  0  0  0  0  0  0  0  0
   -7.9135    6.7086   27.1885 C   0  0  0  0  0  0  0  0  0  0  0  0
   -7.3624    1.8198   27.2561 C   0  0  0  0  0  0  0  0  0  0  0  0
   -6.2192    2.0034   27.7790 O   0  0  0  0  0  0  0  0  0  0  0  0
   -7.7331    0.6173   26.9453 N   0  0  0  0  0  0  0  0  0  0  0  0
   -8.9022    0.2208   26.3358 C   0  0  2  0  0  0  0  0  0  0  0  0
   -9.8808    1.3611   26.1231 C   0  0  0  0  0  0  0  0  0  0  0  0
   -8.5751    7.8342   26.8051 N   0  0  0  0  0  0  0  0  0  0  0  0
   -6.8270    6.7844   27.8157 O   0  0  0  0  0  0  0  0  0  0  0  0
   -9.2853   -1.0531   26.1596 C   0  0  0  0  0  0  0  0  0  0  0  0
   -9.3227   -1.4918   24.9258 C   0  0  0  0  0  0  0  0  0  0  0  0
   -9.6512   -2.7282   24.6461 C   0  0  0  0  0  0  0  0  0  0  0  0
   -9.5722   -1.8505   27.2229 C   0  0  0  0  0  0  0  0  0  0  0  0
   -9.9731   -3.1929   27.0619 C   0  0  0  0  0  0  0  0  0  0  0  0
   -9.9898   -3.6186   25.7192 C   0  0  0  0  0  0  0  0  0  0  0  0
  3  7  1  0
  2  8  1  0
  8  9  2  0
  8 10  1  0
 10 11  1  0
  5 12  1  0
 11 12  1  0
  7 13  1  0
  7 14  2  0
 11 15  1  1
 15 16  2  0
 16 17  1  0
 17 20  2  0
 20 19  1  0
 19 18  2  0
 18 15  1  0
  1  2  2  0
  2  5  1  0
  5  6  2  0
  6  4  1  0
  4  3  2  0
  3  1  1  0
M  END
$$$$
