No_3548-complexes_sdf/6BKW-FPZ/2024-09-17-14-21-01/
     RDKit          3D

 24 26  0  0  0  0  0  0  0  0999 V2000
   -7.2496    3.8871   27.4508 C   0  0  0  0  0  0  0  0  0  0  0  0
   -7.6161    2.7143   27.1523 C   0  0  0  0  0  0  0  0  0  0  0  0
   -8.6212    2.2239   26.4074 C   0  0  0  0  0  0  0  0  0  0  0  0
   -8.2540    4.9237   27.1711 C   0  0  0  0  0  0  0  0  0  0  0  0
   -9.3709    4.6019   26.4511 C   0  0  0  0  0  0  0  0  0  0  0  0
   -9.5922    3.3274   26.0949 C   0  0  0  0  0  0  0  0  0  0  0  0
   -7.9165    6.3279   27.5749 C   0  0  0  0  0  0  0  0  0  0  0  0
  -10.7701    2.9798   25.2771 C   0  0  0  0  0  0  0  0  0  0  0  0
  -11.8998    2.8738   25.7593 C   0  0  0  0  0  0  0  0  0  0  0  0
  -10.5789    2.8199   23.8416 C   0  0  0  0  0  0  0  0  0  0  0  0
  -11.4054    2.9303   22.9052 C   0  0  0  0  0  0  0  0  0  0  0  0
  -13.0792    2.9067   24.8375 C   0  0  0  0  0  0  0  0  0  0  0  0
  -12.8129    2.8704   23.4963 C   0  0  0  0  0  0  0  0  0  0  0  0
   -6.4008    1.7109   27.5335 C   0  0  0  0  0  0  0  0  0  0  0  0
   -6.6350    0.3902   27.6895 N   0  0  0  0  0  0  0  0  0  0  0  0
   -7.6285   -0.2362   27.6907 C   0  0  0  0  0  0  0  0  0  0  0  0
   -7.6991   -1.3798   27.6601 C   0  0  0  0  0  0  0  0  0  0  0  0
   -5.5894   -0.3991   28.0687 C   0  0  0  0  0  0  0  0  0  0  0  0
   -5.5591   -1.6431   28.2607 C   0  0  0  0  0  0  0  0  0  0  0  0
   -6.7653   -2.2480   28.1287 C   0  0  0  0  0  0  0  0  0  0  0  0
   -8.8024    7.3113   27.1973 N   0  0  0  0  0  0  0  0  0  0  0  0
   -4.2013    0.4582   28.2949 C   0  0  0  0  0  0  0  0  0  0  0  0
   -3.2236   -0.1363   28.8654 N   0  0  0  0  0  0  0  0  0  0  0  0
   -5.2842    2.3290   27.6568 O   0  0  0  0  0  0  0  0  0  0  0  0
  4  7  1  0
  6  8  1  0
  2 14  1  0
 14 15  1  0
 15 16  1  0
 15 18  1  0
 17 20  1  0
 19 20  1  0
  7 21  1  0
 18 22  1  0
 22 23  2  0
 14 24  2  0
 16 17  1  0
 19 18  1  0
  1  2  2  0
  2  3  1  0
  3  6  2  0
  6  5  1  0
  5  4  2  0
  4  1  1  0
  8  9  2  0
  9 12  1  0
 12 13  2  0
 13 11  1  0
 11 10  2  0
 10  8  1  0
M  END
$$$$
