No_316-complexes_sdf/6BKW-FPZ/2024-09-17-14-21-01/
     RDKit          3D

 14 15  0  0  0  0  0  0  0  0999 V2000
   -7.7129    4.2099   27.0854 C   0  0  0  0  0  0  0  0  0  0  0  0
   -7.7814    5.1722   27.8972 C   0  0  0  0  0  0  0  0  0  0  0  0
   -8.8776    3.8408   26.3416 C   0  0  0  0  0  0  0  0  0  0  0  0
   -9.9844    4.6492   26.4743 C   0  0  0  0  0  0  0  0  0  0  0  0
   -8.7830    6.1594   27.8870 C   0  0  0  0  0  0  0  0  0  0  0  0
   -9.9269    5.8191   27.1183 C   0  0  0  0  0  0  0  0  0  0  0  0
   -8.8833    2.5999   25.5655 C   0  0  0  0  0  0  0  0  0  0  0  0
   -8.2775    1.4603   26.1626 C   0  0  0  0  0  0  0  0  0  0  0  0
   -7.8852    1.5176   27.4500 C   0  0  0  0  0  0  0  0  0  0  0  0
   -8.2284    0.3052   25.3194 C   0  0  0  0  0  0  0  0  0  0  0  0
   -7.1754   -0.6100   25.4907 C   0  0  0  0  0  0  0  0  0  0  0  0
   -6.8434    0.3622   27.7515 C   0  0  0  0  0  0  0  0  0  0  0  0
   -6.4692   -0.3222   26.8269 C   0  0  0  0  0  0  0  0  0  0  0  0
   -9.4688    2.5940   24.4642 O   0  0  0  0  0  0  0  0  0  0  0  0
  3  7  1  0
  7  8  1  0
  7 14  2  0
  8  9  2  0
  9 12  1  0
 12 13  2  0
 13 11  1  0
 11 10  2  0
 10  8  1  0
  1  2  2  0
  2  5  1  0
  5  6  2  0
  6  4  1  0
  4  3  2  0
  3  1  1  0
M  END
$$$$
