No_3697-complexes_sdf/6BKW-FPZ/2024-09-17-14-21-01/
     RDKit          3D

 12 12  0  0  0  0  0  0  0  0999 V2000
   -7.7129    4.2099   27.0854 C   0  0  0  0  0  0  0  0  0  0  0  0
   -8.2112    3.0637   26.9225 C   0  0  0  0  0  0  0  0  0  0  0  0
   -9.4446    2.8304   26.1868 C   0  0  0  0  0  0  0  0  0  0  0  0
   -6.6388    4.5347   28.1123 C   0  0  0  0  0  0  0  0  0  0  0  0
   -9.9056    3.6854   25.8005 C   0  0  0  0  0  0  0  0  0  0  0  0
   -9.4745    5.1149   25.8420 C   0  0  0  0  0  0  0  0  0  0  0  0
   -8.4483    5.3628   26.6017 C   0  0  0  0  0  0  0  0  0  0  0  0
   -5.6516    3.6065   28.0850 N   0  0  0  0  0  0  0  0  0  0  0  0
   -6.7791    5.4874   28.9570 N   0  0  0  0  0  0  0  0  0  0  0  0
  -11.1651    3.5894   24.8072 C   0  0  0  0  0  0  0  0  0  0  0  0
  -12.3375    3.3609   25.3180 C   0  0  0  0  0  0  0  0  0  0  0  0
  -13.4675    3.2130   24.4431 C   0  0  0  0  0  0  0  0  0  0  0  0
  1  4  1  0
  4  8  2  0
  4  9  1  0
  5 10  1  0
 10 11  2  3
 11 12  1  0
  1  2  2  0
  2  3  1  0
  3  5  2  0
  5  6  1  0
  6  7  2  0
  7  1  1  0
M  END
$$$$
