No_3686-complexes_sdf/6BKW-FPZ/2024-09-17-14-21-01/
     RDKit          3D

 23 25  0  0  0  0  0  0  0  0999 V2000
   -7.9040    3.9820   27.1177 C   0  0  0  0  0  0  0  0  0  0  0  0
   -8.2057    2.8231   26.8733 C   0  0  0  0  0  0  0  0  0  0  0  0
   -8.7463    4.9537   27.6708 C   0  0  0  0  0  0  0  0  0  0  0  0
   -8.3921    6.3606   27.8466 C   0  0  0  0  0  0  0  0  0  0  0  0
   -9.5482    2.3521   27.1946 C   0  0  0  0  0  0  0  0  0  0  0  0
  -10.4264    3.2507   27.7616 C   0  0  0  0  0  0  0  0  0  0  0  0
  -10.0702    4.5620   28.0189 C   0  0  0  0  0  0  0  0  0  0  0  0
   -9.8470    0.9187   26.9829 C   0  0  0  0  0  0  0  0  0  0  0  0
  -10.6161    0.6263   25.9225 C   0  0  0  0  0  0  0  0  0  0  0  0
  -10.7604   -0.5146   25.5326 C   0  0  0  0  0  0  0  0  0  0  0  0
   -9.4467   -0.0378   27.9186 C   0  0  0  0  0  0  0  0  0  0  0  0
   -9.6620   -1.3640   27.7070 C   0  0  0  0  0  0  0  0  0  0  0  0
  -10.3690   -1.6435   26.4740 C   0  0  0  0  0  0  0  0  0  0  0  0
   -8.1039    7.0290   26.4840 C   0  0  0  0  0  0  0  0  0  0  0  0
  -11.7650    2.7844   28.2345 C   0  0  0  0  0  0  0  0  0  0  0  0
  -12.5289    3.6270   28.8657 C   0  0  0  0  0  0  0  0  0  0  0  0
  -13.8369    3.2521   29.4106 C   0  0  0  0  0  0  0  0  0  0  0  0
  -14.2325    1.9467   29.1605 C   0  0  0  0  0  0  0  0  0  0  0  0
  -13.4279    1.0419   28.4606 C   0  0  0  0  0  0  0  0  0  0  0  0
  -12.1970    1.4600   28.0672 C   0  0  0  0  0  0  0  0  0  0  0  0
   -7.4912    8.2988   26.8300 C   0  0  0  0  0  0  0  0  0  0  0  0
  -13.9394   -0.3276   28.2883 C   0  0  0  0  0  0  0  0  0  0  0  0
  -13.9363   -1.3945   26.9749 Br  0  0  0  0  0  0  0  0  0  0  0  0
  3  4  1  0
  5  8  1  0
  4 14  1  0
  6 15  1  0
 14 21  1  0
 19 22  1  0
 22 23  1  0
 15 16  2  0
 16 17  1  0
 17 18  2  0
 18 19  1  0
 19 20  2  0
 20 15  1  0
  8  9  2  0
  9 10  1  0
 10 13  2  0
 13 12  1  0
 12 11  2  0
 11  8  1  0
  1  2  2  0
  2  5  1  0
  5  6  2  0
  6  7  1  0
  7  3  2  0
  3  1  1  0
M  END
$$$$
