No_349-complexes_sdf/6BKW-FPZ/2024-09-17-14-21-01/
     RDKit          3D

 11 10  0  0  0  0  0  0  0  0999 V2000
   -7.9040    3.9820   27.1177 C   0  0  0  0  0  0  0  0  0  0  0  0
   -9.0711    4.3164   27.0630 C   0  0  1  0  0  0  0  0  0  0  0  0
   -9.5294    5.4517   27.7215 C   0  0  0  0  0  0  0  0  0  0  0  0
   -9.9845    3.5634   26.2189 C   0  0  0  0  0  0  0  0  0  0  0  0
  -10.5758    2.5046   26.7628 C   0  0  0  0  0  0  0  0  0  0  0  0
   -7.3288    3.8068   28.2007 C   0  0  0  0  0  0  0  0  0  0  0  0
   -5.9001    3.3348   28.0674 C   0  0  0  0  0  0  0  0  0  0  0  0
  -10.7456    2.2406   27.9643 C   0  0  0  0  0  0  0  0  0  0  0  0
  -11.3892    1.0637   28.5768 C   0  0  0  0  0  0  0  0  0  0  0  0
  -11.6487    0.0756   27.6620 C   0  0  0  0  0  0  0  0  0  0  0  0
  -11.4851    0.1994   26.3299 C   0  0  0  0  0  0  0  0  0  0  0  0
  1  2  1  0
  2  3  1  6
  2  4  1  0
  4  5  2  3
  1  6  2  3
  6  7  1  0
  5  8  1  0
  8  9  2  3
  9 10  1  0
 10 11  2  0
M  END
$$$$
