No_34-complexes_sdf/6BKW-FPZ/2024-09-17-14-21-01/
     RDKit          3D

 32 37  0  0  0  0  0  0  0  0999 V2000
   -7.9040    3.9820   27.1177 C   0  0  0  0  0  0  0  0  0  0  0  0
   -9.0711    4.3164   27.0630 C   0  0  0  0  0  0  0  0  0  0  0  0
   -9.5182    5.5541   27.5777 C   0  0  0  0  0  0  0  0  0  0  0  0
   -7.4468    2.6843   26.6499 C   0  0  0  0  0  0  0  0  0  0  0  0
   -8.3856    1.7878   26.2216 C   0  0  0  0  0  0  0  0  0  0  0  0
   -9.6812    2.2328   26.0889 C   0  0  0  0  0  0  0  0  0  0  0  0
  -10.0147    3.4312   26.5259 C   0  0  0  0  0  0  0  0  0  0  0  0
   -7.9132    0.4733   25.8127 C   0  0  0  0  0  0  0  0  0  0  0  0
   -7.2603   -0.3570   26.7388 C   0  0  0  0  0  0  0  0  0  0  0  0
   -6.8045   -1.6258   26.3954 C   0  0  0  0  0  0  0  0  0  0  0  0
   -7.1211   -2.0534   25.0953 C   0  0  0  0  0  0  0  0  0  0  0  0
   -8.1104   -0.2068   24.6336 C   0  0  0  0  0  0  0  0  0  0  0  0
   -7.6948   -1.3146   24.2039 C   0  0  0  0  0  0  0  0  0  0  0  0
   -8.5838    6.6641   27.4563 C   0  0  0  0  0  0  0  0  0  0  0  0
   -7.2449    6.3609   27.3200 C   0  0  0  0  0  0  0  0  0  0  0  0
   -6.8361    5.0472   27.2587 C   0  0  0  0  0  0  0  0  0  0  0  0
   -8.8156    0.7266   23.5205 C   0  0  0  0  0  0  0  0  0  0  0  0
   -9.1167    0.2363   22.3220 C   0  0  0  0  0  0  0  0  0  0  0  0
   -8.6858   -0.9960   21.8798 C   0  0  0  0  0  0  0  0  0  0  0  0
   -7.8836   -1.8745   22.8862 C   0  0  0  0  0  0  0  0  0  0  0  0
   -9.8651    1.0659   21.3847 C   0  0  0  0  0  0  0  0  0  0  0  0
  -11.0495    0.5785   20.7830 C   0  0  0  0  0  0  0  0  0  0  0  0
  -11.7014    1.3660   19.9053 C   0  0  0  0  0  0  0  0  0  0  0  0
  -11.4033    2.7661   19.8001 C   0  0  0  0  0  0  0  0  0  0  0  0
  -10.3132    3.3136   20.4684 C   0  0  0  0  0  0  0  0  0  0  0  0
   -9.5786    2.5060   21.2956 C   0  0  0  0  0  0  0  0  0  0  0  0
  -11.4655    3.8432   26.3589 C   0  0  0  0  0  0  0  0  0  0  0  0
  -12.0371    3.9824   25.2112 C   0  0  0  0  0  0  0  0  0  0  0  0
  -13.3947    4.1399   25.0218 C   0  0  0  0  0  0  0  0  0  0  0  0
  -14.1757    4.4212   26.1872 C   0  0  0  0  0  0  0  0  0  0  0  0
  -13.5758    4.4150   27.4468 C   0  0  0  0  0  0  0  0  0  0  0  0
  -12.2350    4.1050   27.5961 C   0  0  0  0  0  0  0  0  0  0  0  0
  5  8  1  0
 18 21  1  0
  7 27  1  0
  2  7  1  0
  7  6  2  0
  6  5  1  0
  5  4  2  0
  4  1  1  0
  8  9  2  0
  9 10  1  0
 10 11  2  0
 11 13  1  0
 12  8  1  0
 27 28  2  0
 28 29  1  0
 29 30  2  0
 30 31  1  0
 31 32  2  0
 32 27  1  0
 12 13  2  0
 13 20  1  0
 20 19  2  0
 19 18  1  0
 18 17  2  0
 17 12  1  0
  1  2  1  0
  2  3  2  0
  3 14  1  0
 14 15  2  0
 15 16  1  0
 16  1  2  0
 21 22  2  0
 22 23  1  0
 23 24  2  0
 24 25  1  0
 25 26  2  0
 26 21  1  0
M  END
$$$$
