No_3973-complexes_sdf/6BKW-FPZ/2024-09-17-14-21-01/
     RDKit          3D

 15 16  0  0  0  0  0  0  0  0999 V2000
   -7.9040    3.9820   27.1177 C   0  0  0  0  0  0  0  0  0  0  0  0
   -7.8663    4.8694   27.9238 C   0  0  0  0  0  0  0  0  0  0  0  0
   -9.0491    3.8523   26.2542 C   0  0  0  0  0  0  0  0  0  0  0  0
   -8.7661    5.9491   27.9690 C   0  0  0  0  0  0  0  0  0  0  0  0
   -9.9295    4.8502   26.2323 C   0  0  0  0  0  0  0  0  0  0  0  0
   -9.8077    5.9288   27.0933 C   0  0  0  0  0  0  0  0  0  0  0  0
   -6.9732    2.9973   27.2919 F   0  0  0  0  0  0  0  0  0  0  0  0
   -8.8924    2.6244   25.3285 C   0  0  0  0  0  0  0  0  0  0  0  0
   -9.8513    2.6318   24.3571 N   0  0  0  0  0  0  0  0  0  0  0  0
  -10.5557    3.5709   23.8972 C   0  0  0  0  0  0  0  0  0  0  0  0
   -9.8405    1.3772   23.5846 C   0  0  0  0  0  0  0  0  0  0  0  0
  -11.2308    3.4714   22.6694 C   0  0  0  0  0  0  0  0  0  0  0  0
  -10.5148    1.2883   22.3848 C   0  0  0  0  0  0  0  0  0  0  0  0
  -11.2231    2.3661   21.9224 C   0  0  0  0  0  0  0  0  0  0  0  0
   -8.1793    1.6695   25.6197 O   0  0  0  0  0  0  0  0  0  0  0  0
  1  7  1  0
  3  8  1  0
  8  9  1  0
  9 10  1  0
  9 11  1  0
 12 14  1  0
 13 14  1  0
  8 15  2  0
 10 12  1  0
 13 11  1  0
  1  2  2  0
  2  4  1  0
  4  6  2  0
  6  5  1  0
  5  3  2  0
  3  1  1  0
M  END
$$$$
