No_3908-complexes_sdf/6BKW-FPZ/2024-09-17-14-21-01/
     RDKit          3D

 37 42  0  0  0  0  0  0  0  0999 V2000
   -7.9040    3.9820   27.1177 C   0  0  0  0  0  0  0  0  0  0  0  0
   -7.8663    4.8694   27.9238 C   0  0  0  0  0  0  0  0  0  0  0  0
   -9.0501    3.8017   26.2617 C   0  0  0  0  0  0  0  0  0  0  0  0
  -10.0189    4.7608   26.3707 C   0  0  0  0  0  0  0  0  0  0  0  0
   -8.6770    5.9780   27.9222 C   0  0  0  0  0  0  0  0  0  0  0  0
   -9.8040    5.8752   27.0958 C   0  0  0  0  0  0  0  0  0  0  0  0
   -9.3608    2.6690   25.4435 C   0  0  0  0  0  0  0  0  0  0  0  0
   -8.8182    1.4490   25.7896 C   0  0  0  0  0  0  0  0  0  0  0  0
   -8.1441    1.3366   27.0815 C   0  0  0  0  0  0  0  0  0  0  0  0
   -7.4021    2.6257   27.4780 N   0  0  0  0  0  0  0  0  0  0  0  0
  -10.0896    2.8007   24.2547 C   0  0  0  0  0  0  0  0  0  0  0  0
  -10.1358    1.7849   23.2952 C   0  0  0  0  0  0  0  0  0  0  0  0
   -9.4950    0.5193   23.7096 C   0  0  0  0  0  0  0  0  0  0  0  0
   -8.8598    0.3663   24.9260 C   0  0  0  0  0  0  0  0  0  0  0  0
   -7.8526    0.3522   27.7107 O   0  0  0  0  0  0  0  0  0  0  0  0
  -10.8524    1.9127   22.0850 C   0  0  0  0  0  0  0  0  0  0  0  0
  -12.2167    1.9621   22.1336 C   0  0  0  0  0  0  0  0  0  0  0  0
  -12.8885    2.3054   21.0522 C   0  0  0  0  0  0  0  0  0  0  0  0
  -12.2135    2.4447   19.7571 C   0  0  0  0  0  0  0  0  0  0  0  0
  -10.8384    2.4109   19.7055 C   0  0  0  0  0  0  0  0  0  0  0  0
  -10.0678    2.1873   20.8902 C   0  0  0  0  0  0  0  0  0  0  0  0
   -9.6539   -0.6080   22.7857 C   0  0  0  0  0  0  0  0  0  0  0  0
   -8.5247   -1.0758   22.2933 C   0  0  0  0  0  0  0  0  0  0  0  0
   -8.2360   -2.0927   22.2029 C   0  0  0  0  0  0  0  0  0  0  0  0
  -10.8299   -1.2101   22.5109 C   0  0  0  0  0  0  0  0  0  0  0  0
  -10.7444   -2.5069   21.9791 C   0  0  0  0  0  0  0  0  0  0  0  0
   -9.4474   -3.0015   21.7359 C   0  0  0  0  0  0  0  0  0  0  0  0
   -9.2937   -4.3531   21.1669 C   0  0  0  0  0  0  0  0  0  0  0  0
   -9.0199   -5.2659   21.7733 O   0  0  0  0  0  0  0  0  0  0  0  0
   -9.4973   -4.2854   19.8769 O   0  0  0  0  0  0  0  0  0  0  0  0
  -12.8636    1.8194   23.2384 F   0  0  0  0  0  0  0  0  0  0  0  0
   -9.8123   -3.4078   19.0941 C   0  0  0  0  0  0  0  0  0  0  0  0
  -10.1496   -3.6882   17.7735 C   0  0  0  0  0  0  0  0  0  0  0  0
  -10.4717   -2.6111   16.8579 C   0  0  0  0  0  0  0  0  0  0  0  0
  -10.5167   -1.2702   17.3212 C   0  0  0  0  0  0  0  0  0  0  0  0
  -10.1816   -0.9849   18.6237 C   0  0  0  0  0  0  0  0  0  0  0  0
   -9.8379   -1.9373   19.3979 C   0  0  0  0  0  0  0  0  0  0  0  0
  3  7  1  0
  8  9  1  0
  1 10  1  0
  9 10  1  0
  9 15  2  0
 12 16  1  0
 13 22  1  0
 27 28  1  0
 28 29  2  0
 28 30  1  0
 17 31  1  0
 30 32  1  0
 32 33  2  0
 33 34  1  0
 34 35  2  0
 35 36  1  0
 36 37  2  0
 37 32  1  0
  7 11  2  0
 11 12  1  0
 12 13  2  0
 13 14  1  0
 14  8  2  0
  8  7  1  0
 22 23  2  0
 23 24  1  0
 24 27  2  0
 27 26  1  0
 26 25  2  0
 25 22  1  0
  1  2  2  0
  2  5  1  0
  5  6  2  0
  6  4  1  0
  4  3  2  0
  3  1  1  0
 16 17  2  0
 17 18  1  0
 18 19  2  0
 19 20  1  0
 20 21  2  0
 21 16  1  0
M  END
$$$$
