No_3481-complexes_sdf/6BKW-FPZ/2024-09-17-14-21-01/
     RDKit          3D

 16 18  0  0  0  0  0  0  0  0999 V2000
   -7.9040    3.9820   27.1177 C   0  0  0  0  0  0  0  0  0  0  0  0
   -7.8663    4.8694   27.9238 C   0  0  0  0  0  0  0  0  0  0  0  0
   -7.4547    2.7080   27.4594 C   0  0  0  0  0  0  0  0  0  0  0  0
   -7.9337    1.5946   26.8372 C   0  0  0  0  0  0  0  0  0  0  0  0
   -7.4948    0.3059   27.1189 C   0  0  0  0  0  0  0  0  0  0  0  0
   -8.1909    6.2127   27.7180 C   0  0  0  0  0  0  0  0  0  0  0  0
   -8.8830    6.5611   26.5006 C   0  0  0  0  0  0  0  0  0  0  0  0
   -8.6627    4.2361   25.9428 C   0  0  0  0  0  0  0  0  0  0  0  0
   -9.1787    5.4953   25.6819 C   0  0  0  0  0  0  0  0  0  0  0  0
   -6.3112    0.1955   27.8599 C   0  0  0  0  0  0  0  0  0  0  0  0
   -5.6059    1.3385   28.2876 C   0  0  0  0  0  0  0  0  0  0  0  0
   -6.0865    2.5482   28.0272 C   0  0  0  0  0  0  0  0  0  0  0  0
   -5.9075   -1.2167   28.0410 C   0  0  0  0  0  0  0  0  0  0  0  0
   -6.5682   -2.1711   27.9030 C   0  0  0  0  0  0  0  0  0  0  0  0
   -7.9046   -1.9592   27.2365 C   0  0  0  0  0  0  0  0  0  0  0  0
   -8.3357   -0.7407   26.8715 C   0  0  0  0  0  0  0  0  0  0  0  0
  3  1  1  0
  3  4  2  0
  4  5  1  0
 10 11  1  0
 11 12  2  0
 12  3  1  0
  5 10  2  0
 10 13  1  0
 13 14  2  0
 14 15  1  0
 15 16  2  0
 16  5  1  0
  1  2  2  0
  2  6  1  0
  6  7  2  0
  7  9  1  0
  9  8  2  0
  8  1  1  0
M  END
$$$$
