No_3183-complexes_sdf/6BKW-FPZ/2024-09-17-14-21-01/
     RDKit          3D

 10 10  0  0  0  0  0  0  0  0999 V2000
   -7.9040    3.9820   27.1177 C   0  0  0  0  0  0  0  0  0  0  0  0
   -9.0711    4.3164   27.0630 C   0  0  1  0  0  0  0  0  0  0  0  0
   -9.5294    5.4517   27.7215 C   0  0  0  0  0  0  0  0  0  0  0  0
   -9.9845    3.5634   26.2189 C   0  0  0  0  0  0  0  0  0  0  0  0
   -9.6295    2.5733   25.6121 C   0  0  0  0  0  0  0  0  0  0  0  0
   -6.9226    4.6383   28.0851 C   0  0  0  0  0  0  0  0  0  0  0  0
  -10.1531    2.1955   24.3991 C   0  0  0  0  0  0  0  0  0  0  0  0
  -10.6534    3.1722   23.5057 C   0  0  0  0  0  0  0  0  0  0  0  0
  -11.0294    4.4395   24.1133 C   0  0  0  0  0  0  0  0  0  0  0  0
  -10.0860    4.8640   25.0587 C   0  0  0  0  0  0  0  0  0  0  0  0
  1  2  1  0
  2  3  1  6
  2  4  1  0
  1  6  1  0
  4  5  2  0
  5  7  1  0
  7  8  2  0
  8  9  1  0
  9 10  2  0
 10  4  1  0
M  END
$$$$
