No_3452-complexes_sdf/6BKW-FPZ/2024-09-17-14-21-01/
     RDKit          3D

 15 16  0  0  0  0  0  0  0  0999 V2000
   -7.7129    4.2099   27.0854 C   0  0  0  0  0  0  0  0  0  0  0  0
   -8.9133    4.4736   27.0998 C   0  0  0  0  0  0  0  0  0  0  0  0
   -9.4643    5.5426   27.7628 C   0  0  0  0  0  0  0  0  0  0  0  0
   -6.8373    4.9942   27.9785 C   0  0  0  0  0  0  0  0  0  0  0  0
   -7.3717    6.0428   28.6744 C   0  0  0  0  0  0  0  0  0  0  0  0
   -8.6869    6.3937   28.5345 C   0  0  0  0  0  0  0  0  0  0  0  0
   -9.8029    3.6153   26.2122 C   0  0  0  0  0  0  0  0  0  0  0  0
   -9.9626    4.0202   24.8230 C   0  0  0  0  0  0  0  0  0  0  0  0
  -10.5693    3.2806   23.8758 C   0  0  0  0  0  0  0  0  0  0  0  0
  -11.0580    2.0220   24.2466 C   0  0  0  0  0  0  0  0  0  0  0  0
  -10.2406    2.3497   26.4948 C   0  0  0  0  0  0  0  0  0  0  0  0
  -10.8815    1.5203   25.5648 C   0  0  0  0  0  0  0  0  0  0  0  0
  -10.7696    3.8012   22.5296 C   0  0  0  0  0  0  0  0  0  0  0  0
  -10.2658    3.2005   21.4189 C   0  0  0  0  0  0  0  0  0  0  0  0
  -10.4644    3.7018   20.1588 C   0  0  0  0  0  0  0  0  0  0  0  0
  2  7  1  0
  9 13  1  0
 13 14  2  3
 14 15  1  0
  7  8  2  0
  8  9  1  0
  9 10  2  0
 10 12  1  0
 12 11  2  0
 11  7  1  0
  1  2  2  0
  2  3  1  0
  3  6  2  0
  6  5  1  0
  5  4  2  0
  4  1  1  0
M  END
$$$$
