No_3809-complexes_sdf/6BKW-FPZ/2024-09-17-14-21-01/
     RDKit          3D

 27 29  0  0  0  0  0  0  0  0999 V2000
   -7.2496    3.8871   27.4508 C   0  0  0  0  0  0  0  0  0  0  0  0
   -7.9379    4.9063   27.8518 C   0  0  0  0  0  0  0  0  0  0  0  0
   -7.5112    6.1898   27.6280 C   0  0  0  0  0  0  0  0  0  0  0  0
   -9.3085    4.6933   28.2930 C   0  0  0  0  0  0  0  0  0  0  0  0
   -7.7803    2.5137   27.6845 C   0  0  0  0  0  0  0  0  0  0  0  0
   -9.1545    2.3397   27.7350 C   0  0  0  0  0  0  0  0  0  0  0  0
   -9.8866    3.4718   28.2310 C   0  0  0  0  0  0  0  0  0  0  0  0
   -6.9534    1.3843   27.1185 C   0  0  1  0  0  0  0  0  0  0  0  0
   -5.4529    1.3752   27.8585 Cl  0  0  0  0  0  0  0  0  0  0  0  0
  -11.3292    3.2657   28.6229 C   0  0  0  0  0  0  0  0  0  0  0  0
  -11.8521    2.0358   28.7813 C   0  0  0  0  0  0  0  0  0  0  0  0
  -13.1674    1.8390   29.2138 C   0  0  0  0  0  0  0  0  0  0  0  0
  -13.9096    2.9882   29.6121 C   0  0  0  0  0  0  0  0  0  0  0  0
  -13.4308    4.2656   29.3535 C   0  0  0  0  0  0  0  0  0  0  0  0
  -12.1341    4.4177   28.8994 C   0  0  0  0  0  0  0  0  0  0  0  0
   -7.3326    0.3544   26.3792 C   0  0  0  0  0  0  0  0  0  0  0  0
   -7.5853   -0.8936   27.0593 C   0  0  0  0  0  0  0  0  0  0  0  0
   -6.9902   -1.4878   27.7951 C   0  0  0  0  0  0  0  0  0  0  0  0
   -6.9680   -2.4752   28.5373 C   0  0  0  0  0  0  0  0  0  0  0  0
   -6.0333   -2.9656   29.5599 C   0  0  0  0  0  0  0  0  0  0  0  0
   -4.9054   -2.1423   29.7712 C   0  0  0  0  0  0  0  0  0  0  0  0
   -4.7652   -0.9860   29.0524 C   0  0  0  0  0  0  0  0  0  0  0  0
   -5.7186   -0.5584   28.2146 C   0  0  0  0  0  0  0  0  0  0  0  0
   -5.0914   -1.3162   27.6053 C   0  0  1  0  0  0  0  0  0  0  0  0
   -4.4433   -1.7082   26.6517 C   0  0  0  0  0  0  0  0  0  0  0  0
   -4.9140   -2.0241   26.5317 C   0  0  0  0  0  0  0  0  0  0  0  0
   -4.3702   -0.2704   28.2736 F   0  0  0  0  0  0  0  0  0  0  0  0
  2  3  1  0
  5  8  1  0
  8  9  1  1
  7 10  1  0
  8 16  1  0
 16 17  1  0
 23 24  1  0
 24 25  1  0
 25 26  1  0
 24 27  1  1
 17 18  1  0
 18 19  2  0
 19 20  1  0
 20 21  2  0
 21 22  1  0
 22 23  2  0
 23 18  1  0
  1  2  2  0
  2  4  1  0
  4  7  2  0
  7  6  1  0
  6  5  2  0
  5  1  1  0
 10 11  2  0
 11 12  1  0
 12 13  2  0
 13 14  1  0
 14 15  2  0
 15 10  1  0
M  END
$$$$
