No_3255-complexes_sdf/6BKW-FPZ/2024-09-17-14-21-01/
     RDKit          3D

 26 29  0  0  0  0  0  0  0  0999 V2000
   -7.7129    4.2099   27.0854 C   0  0  0  0  0  0  0  0  0  0  0  0
   -8.9133    4.4736   27.0998 C   0  0  0  0  0  0  0  0  0  0  0  0
   -9.7937    3.7368   26.2091 C   0  0  0  0  0  0  0  0  0  0  0  0
   -6.8266    5.0441   28.0594 C   0  0  0  0  0  0  0  0  0  0  0  0
  -11.0884    4.1572   25.9278 C   0  0  0  0  0  0  0  0  0  0  0  0
  -11.6770    4.9422   26.9825 C   0  0  0  0  0  0  0  0  0  0  0  0
  -10.9362    5.5084   27.9806 C   0  0  0  0  0  0  0  0  0  0  0  0
   -9.5453    5.3326   28.0614 C   0  0  0  0  0  0  0  0  0  0  0  0
  -11.9312    3.5037   24.9551 C   0  0  0  0  0  0  0  0  0  0  0  0
  -11.8011    4.0626   23.6354 C   0  0  0  0  0  0  0  0  0  0  0  0
  -12.5485    3.5556   22.5396 C   0  0  0  0  0  0  0  0  0  0  0  0
  -13.3766    2.5302   22.7715 C   0  0  0  0  0  0  0  0  0  0  0  0
  -12.7615    2.5362   25.0138 C   0  0  0  0  0  0  0  0  0  0  0  0
  -13.4908    2.0213   24.0295 C   0  0  0  0  0  0  0  0  0  0  0  0
   -7.3914    6.0057   28.7058 N   0  0  0  0  0  0  0  0  0  0  0  0
   -8.6672    6.0620   28.7784 N   0  0  0  0  0  0  0  0  0  0  0  0
  -14.2522    1.9077   21.4425 Cl  0  0  0  0  0  0  0  0  0  0  0  0
   -9.2241    2.9701   25.2829 O   0  0  0  0  0  0  0  0  0  0  0  0
   -9.0790    1.6616   25.7516 C   0  0  0  0  0  0  0  0  0  0  0  0
   -9.9337    0.6897   25.3275 C   0  0  0  0  0  0  0  0  0  0  0  0
  -10.0316    0.3769   24.0944 C   0  0  0  0  0  0  0  0  0  0  0  0
   -9.7191   -0.4745   23.6332 C   0  0  0  0  0  0  0  0  0  0  0  0
  -10.7434    0.0828   26.3488 C   0  0  0  0  0  0  0  0  0  0  0  0
  -11.1322   -1.2625   26.0545 C   0  0  0  0  0  0  0  0  0  0  0  0
  -10.3487   -1.8697   23.9473 C   0  0  0  0  0  0  0  0  0  0  0  0
  -11.0090   -2.0983   25.0772 C   0  0  0  0  0  0  0  0  0  0  0  0
  5  9  1  0
 12 17  1  0
  3 18  1  0
 18 19  1  0
 19 20  1  0
 20 21  1  0
 21 22  2  0
 20 23  1  0
 23 24  2  0
 22 25  1  0
 24 26  1  0
 25 26  2  0
  2  3  1  0
  3  5  2  0
  5  6  1  0
  6  7  2  0
  7  8  1  0
  9 10  2  0
 10 11  1  0
 11 12  2  0
 12 14  1  0
 14 13  2  0
 13  9  1  0
  1  2  2  0
  2  8  1  0
  8 16  2  0
 16 15  1  0
 15  4  2  0
  4  1  1  0
M  END
$$$$
