No_3800-complexes_sdf/6BKW-FPZ/2024-09-17-14-21-01/
     RDKit          3D

 25 27  0  0  0  0  0  0  0  0999 V2000
   -7.7129    4.2099   27.0854 C   0  0  0  0  0  0  0  0  0  0  0  0
   -8.2112    3.0637   26.9225 C   0  0  0  0  0  0  0  0  0  0  0  0
   -9.4446    2.8304   26.1868 C   0  0  0  0  0  0  0  0  0  0  0  0
   -8.4697    5.3956   26.7238 C   0  0  0  0  0  0  0  0  0  0  0  0
   -8.0091    6.7588   26.9904 C   0  0  0  0  0  0  0  0  0  0  0  0
  -10.1208    3.9213   25.7408 C   0  0  0  0  0  0  0  0  0  0  0  0
   -9.5939    5.2027   25.9665 C   0  0  0  0  0  0  0  0  0  0  0  0
   -8.4061    7.7591   26.9896 N   0  0  0  0  0  0  0  0  0  0  0  0
   -6.8177    6.6256   27.8085 O   0  0  0  0  0  0  0  0  0  0  0  0
   -7.4712    1.8009   27.3611 C   0  0  0  0  0  0  0  0  0  0  0  0
   -6.1137    1.8924   27.7285 C   0  0  0  0  0  0  0  0  0  0  0  0
   -5.4008    0.7488   28.1988 C   0  0  0  0  0  0  0  0  0  0  0  0
   -6.0449   -0.4818   28.1532 C   0  0  0  0  0  0  0  0  0  0  0  0
   -8.1415    0.5612   27.4559 C   0  0  0  0  0  0  0  0  0  0  0  0
   -7.3743   -0.5336   27.8590 C   0  0  0  0  0  0  0  0  0  0  0  0
   -3.9674    0.9112   28.5375 C   0  0  0  0  0  0  0  0  0  0  0  0
   -3.3097    0.1144   28.2989 O   0  0  0  0  0  0  0  0  0  0  0  0
   -3.7135    2.0279   29.2646 O   0  0  0  0  0  0  0  0  0  0  0  0
  -11.3430    3.6675   25.0676 C   0  0  0  0  0  0  0  0  0  0  0  0
  -11.3176    2.9679   23.9265 C   0  0  0  0  0  0  0  0  0  0  0  0
  -12.2927    2.8855   23.0850 C   0  0  0  0  0  0  0  0  0  0  0  0
  -13.5091    3.6613   23.4010 C   0  0  0  0  0  0  0  0  0  0  0  0
  -13.5599    4.4386   24.5482 C   0  0  0  0  0  0  0  0  0  0  0  0
  -12.4615    4.5661   25.3617 C   0  0  0  0  0  0  0  0  0  0  0  0
   -8.0314   -1.6923   27.9729 F   0  0  0  0  0  0  0  0  0  0  0  0
  4  5  1  0
  5  8  2  0
  5  9  1  0
  2 10  1  0
 12 16  1  0
 16 17  2  0
 16 18  1  0
  6 19  1  0
 15 25  1  0
  1  2  2  0
  2  3  1  0
  3  6  2  0
  6  7  1  0
  7  4  2  0
  4  1  1  0
 10 11  2  0
 11 12  1  0
 12 13  2  0
 13 15  1  0
 15 14  2  0
 14 10  1  0
 19 20  2  0
 20 21  1  0
 21 22  2  0
 22 23  1  0
 23 24  2  0
 24 19  1  0
M  END
$$$$
