No_3195-complexes_sdf/6BKW-FPZ/2024-09-17-14-21-01/
     RDKit          3D

 40 44  0  0  0  0  0  0  0  0999 V2000
   -7.7129    4.2099   27.0854 C   0  0  0  0  0  0  0  0  0  0  0  0
   -8.2112    3.0637   26.9225 C   0  0  0  0  0  0  0  0  0  0  0  0
   -8.5108    5.3904   26.9436 C   0  0  0  0  0  0  0  0  0  0  0  0
   -9.7256    5.1955   26.3518 C   0  0  0  0  0  0  0  0  0  0  0  0
   -9.4995    2.8258   26.4878 C   0  0  0  0  0  0  0  0  0  0  0  0
  -10.2542    3.9691   26.2055 C   0  0  0  0  0  0  0  0  0  0  0  0
   -7.9135    6.7086   27.1885 C   0  0  0  0  0  0  0  0  0  0  0  0
   -7.2143    1.6300   27.3319 Cl  0  0  0  0  0  0  0  0  0  0  0  0
   -8.5718    7.7635   26.8407 O   0  0  0  0  0  0  0  0  0  0  0  0
   -6.7969    6.7810   27.8027 O   0  0  0  0  0  0  0  0  0  0  0  0
   -9.9841    1.4340   26.2866 C   0  0  0  0  0  0  0  0  0  0  0  0
   -9.6836    0.7543   25.1885 C   0  0  0  0  0  0  0  0  0  0  0  0
  -10.1132   -0.5852   25.0019 C   0  0  0  0  0  0  0  0  0  0  0  0
   -9.7992   -1.2457   23.7960 C   0  0  0  0  0  0  0  0  0  0  0  0
   -9.0534   -0.5543   22.7558 C   0  0  0  0  0  0  0  0  0  0  0  0
   -8.6644    0.7514   22.9209 C   0  0  0  0  0  0  0  0  0  0  0  0
   -8.9311    1.4168   24.0701 C   0  0  0  0  0  0  0  0  0  0  0  0
  -10.7333    0.9209   27.3769 C   0  0  0  0  0  0  0  0  0  0  0  0
  -11.4719    1.7005   28.3003 C   0  0  0  0  0  0  0  0  0  0  0  0
  -12.4772    1.1530   29.1313 C   0  0  0  0  0  0  0  0  0  0  0  0
  -12.5482   -0.2723   29.1215 C   0  0  0  0  0  0  0  0  0  0  0  0
  -11.8431   -1.0545   28.2851 C   0  0  0  0  0  0  0  0  0  0  0  0
  -10.9405   -0.4904   27.3649 C   0  0  0  0  0  0  0  0  0  0  0  0
  -10.5871   -1.2791   26.1908 C   0  0  0  0  0  0  0  0  0  0  0  0
  -11.5056   -2.4123   25.8080 C   0  0  0  0  0  0  0  0  0  0  0  0
  -11.0428   -3.5199   26.5163 C   0  0  0  0  0  0  0  0  0  0  0  0
  -11.7418   -4.7538   26.2250 C   0  0  0  0  0  0  0  0  0  0  0  0
  -12.6878   -4.7113   25.2767 C   0  0  0  0  0  0  0  0  0  0  0  0
  -12.4529   -2.5285   24.9422 C   0  0  0  0  0  0  0  0  0  0  0  0
  -13.0652   -3.6027   24.6133 C   0  0  0  0  0  0  0  0  0  0  0  0
  -13.4361   -0.8785   30.1476 C   0  0  0  0  0  0  0  0  0  0  0  0
  -14.2514   -1.6077   29.7508 O   0  0  0  0  0  0  0  0  0  0  0  0
  -13.3541   -0.4980   31.3752 O   0  0  0  0  0  0  0  0  0  0  0  0
   -8.8022   -1.2661   21.5150 C   0  0  0  0  0  0  0  0  0  0  0  0
   -9.6979   -1.1988   20.5280 N   0  0  0  0  0  0  0  0  0  0  0  0
  -10.6645   -0.3368   20.4600 C   0  0  0  0  0  0  0  0  0  0  0  0
  -11.5042   -0.3874   19.2578 C   0  0  0  0  0  0  0  0  0  0  0  0
   -9.5357   -2.1299   19.4274 C   0  0  0  0  0  0  0  0  0  0  0  0
   -7.7328   -1.8925   21.4979 F   0  0  0  0  0  0  0  0  0  0  0  0
   -8.4759   -2.8634   19.5740 F   0  0  0  0  0  0  0  0  0  0  0  0
  3  7  1  0
  2  8  1  0
  7  9  1  0
  7 10  2  0
  5 11  1  0
 24 25  1  0
 21 31  1  0
 31 32  2  0
 31 33  1  0
 15 34  1  0
 34 35  1  0
 35 36  1  0
 36 37  2  0
 35 38  1  0
 34 39  1  0
 38 40  1  0
 13 14  2  0
 14 15  1  0
 15 16  2  0
 16 17  1  0
 17 12  2  0
 18 19  1  0
 19 20  2  0
 20 21  1  0
 21 22  2  0
 22 23  1  0
 25 26  2  0
 26 27  1  0
 27 28  2  0
 28 30  1  0
 30 29  2  0
 29 25  1  0
 11 12  1  0
 12 13  1  0
 13 24  1  0
 24 23  2  0
 23 18  1  0
 18 11  2  0
  1  2  2  0
  2  5  1  0
  5  6  2  0
  6  4  1  0
  4  3  2  0
  3  1  1  0
M  END
$$$$
