No_3765-complexes_sdf/6BKW-FPZ/2024-09-17-14-21-01/
     RDKit          3D

 16 17  0  0  0  0  0  0  0  0999 V2000
   -7.7129    4.2099   27.0854 C   0  0  0  0  0  0  0  0  0  0  0  0
   -8.9133    4.4736   27.0998 C   0  0  0  0  0  0  0  0  0  0  0  0
   -9.7937    3.7367   26.2091 C   0  0  0  0  0  0  0  0  0  0  0  0
   -7.2496    2.8647   26.8496 C   0  0  0  0  0  0  0  0  0  0  0  0
   -8.1309    1.9724   26.7411 C   0  0  0  0  0  0  0  0  0  0  0  0
   -7.7606    0.6176   26.5438 C   0  0  0  0  0  0  0  0  0  0  0  0
   -9.4385    2.3458   26.2569 C   0  0  0  0  0  0  0  0  0  0  0  0
   -6.9095    0.0842   27.5398 C   0  0  0  0  0  0  0  0  0  0  0  0
   -6.4166   -1.0952   27.5589 C   0  0  0  0  0  0  0  0  0  0  0  0
   -5.4818   -1.5010   28.5534 C   0  0  0  0  0  0  0  0  0  0  0  0
   -4.8835   -0.5695   29.4159 C   0  0  0  0  0  0  0  0  0  0  0  0
   -5.1575    0.7803   29.1269 C   0  0  0  0  0  0  0  0  0  0  0  0
   -6.0897    1.1384   28.2524 C   0  0  0  0  0  0  0  0  0  0  0  0
   -6.3444    2.5774   27.9733 C   0  0  0  0  0  0  0  0  0  0  0  0
   -5.3930    3.3697   28.3204 O   0  0  0  0  0  0  0  0  0  0  0  0
   -6.7768    2.8124   28.8859 F   0  0  0  0  0  0  0  0  0  0  0  0
  5  6  1  0
 13 14  1  0
 14 15  2  0
 14 16  1  0
  6  8  1  0
  1  2  2  0
  2  3  1  0
  3  7  2  0
  7  5  1  0
  5  4  2  0
  4  1  1  0
  8  9  2  0
  9 10  1  0
 10 11  2  0
 11 12  1  0
 12 13  2  0
 13  8  1  0
M  END
$$$$
