No_341-complexes_sdf/6BKW-FPZ/2024-09-17-14-21-01/
     RDKit          3D

 17 19  0  0  0  0  0  0  0  0999 V2000
   -7.9040    3.9820   27.1177 C   0  0  0  0  0  0  0  0  0  0  0  0
   -7.8663    4.8694   27.9238 C   0  0  0  0  0  0  0  0  0  0  0  0
   -9.0501    3.8017   26.2617 C   0  0  0  0  0  0  0  0  0  0  0  0
   -9.1826    2.7026   25.3575 C   0  0  0  0  0  0  0  0  0  0  0  0
   -8.6940    6.0131   27.8614 C   0  0  0  0  0  0  0  0  0  0  0  0
   -9.9755    4.8547   26.2361 C   0  0  0  0  0  0  0  0  0  0  0  0
   -9.7463    5.9398   27.0364 C   0  0  0  0  0  0  0  0  0  0  0  0
  -10.1005    1.8694   25.7051 C   0  0  0  0  0  0  0  0  0  0  0  0
  -10.8866    1.7099   26.4597 C   0  0  0  0  0  0  0  0  0  0  0  0
  -11.4684    1.0233   27.1354 C   0  0  0  0  0  0  0  0  0  0  0  0
  -11.1501    0.8513   28.5336 C   0  0  0  0  0  0  0  0  0  0  0  0
  -10.7835    2.1687   28.9850 C   0  0  0  0  0  0  0  0  0  0  0  0
  -10.2974    2.7410   27.7311 C   0  0  2  0  0  0  0  0  0  0  0  0
  -10.1190    3.8252   27.9013 C   0  0  1  0  0  0  0  0  0  0  0  0
  -11.3039    4.2026   28.5468 O   0  0  0  0  0  0  0  0  0  0  0  0
   -9.3768    4.1187   28.7011 O   0  0  0  0  0  0  0  0  0  0  0  0
   -8.7770    5.0942   28.8931 C   0  0  0  0  0  0  0  0  0  0  0  0
  3  4  1  0
  4  8  1  0
  8  9  2  3
  9 10  1  0
 10 11  2  0
 11 12  1  0
  9 13  1  0
 13 12  1  1
 13 14  1  0
 14 15  1  1
 14 16  1  0
  2 17  1  0
 16 17  1  0
  1  2  2  0
  2  5  1  0
  5  7  2  0
  7  6  1  0
  6  3  2  0
  3  1  1  0
M  END
$$$$
