No_3117-complexes_sdf/6BKW-FPZ/2024-09-17-14-21-01/
     RDKit          3D

 27 30  0  0  0  0  0  0  0  0999 V2000
   -7.9040    3.9820   27.1177 C   0  0  0  0  0  0  0  0  0  0  0  0
   -8.2057    2.8231   26.8733 C   0  0  0  0  0  0  0  0  0  0  0  0
   -7.4766    1.7477   27.4593 C   0  0  0  0  0  0  0  0  0  0  0  0
   -6.7221    4.3631   27.8544 C   0  0  0  0  0  0  0  0  0  0  0  0
   -6.1698    2.0708   27.9540 C   0  0  0  0  0  0  0  0  0  0  0  0
   -5.8496    3.3886   28.1848 C   0  0  0  0  0  0  0  0  0  0  0  0
   -8.7560    5.1534   26.7276 C   0  0  0  0  0  0  0  0  0  0  0  0
   -8.7713    6.2899   27.3841 N   0  0  0  0  0  0  0  0  0  0  0  0
   -9.4443    5.0563   25.6326 O   0  0  0  0  0  0  0  0  0  0  0  0
   -5.4275    0.8226   28.2785 C   0  0  0  0  0  0  0  0  0  0  0  0
   -5.8127   -0.4460   28.2293 C   0  0  0  0  0  0  0  0  0  0  0  0
   -7.1471   -0.5891   27.6194 C   0  0  0  0  0  0  0  0  0  0  0  0
   -7.9057    0.4154   27.2347 C   0  0  0  0  0  0  0  0  0  0  0  0
   -4.9878   -1.5338   28.6097 C   0  0  0  0  0  0  0  0  0  0  0  0
   -3.9857   -1.5310   28.9677 O   0  0  0  0  0  0  0  0  0  0  0  0
   -5.6140   -2.7536   28.5783 O   0  0  0  0  0  0  0  0  0  0  0  0
   -9.2045    0.1337   26.6989 C   0  0  0  0  0  0  0  0  0  0  0  0
  -10.5318    0.7380   25.9284 Br  0  0  0  0  0  0  0  0  0  0  0  0
   -9.4648   -1.4291   27.0510 C   0  0  0  0  0  0  0  0  0  0  0  0
  -10.7542   -1.7345   26.6622 C   0  0  0  0  0  0  0  0  0  0  0  0
  -11.1871   -2.7702   27.0041 C   0  0  0  0  0  0  0  0  0  0  0  0
  -10.3441   -3.7644   27.7189 C   0  0  0  0  0  0  0  0  0  0  0  0
   -9.0842   -3.4147   28.0596 C   0  0  0  0  0  0  0  0  0  0  0  0
   -8.6394   -2.1720   27.8090 C   0  0  0  0  0  0  0  0  0  0  0  0
   -7.6040   -1.7871   27.7875 N   0  0  0  0  0  0  0  0  0  0  0  0
   -4.8537   -3.7684   29.1325 C   0  0  0  0  0  0  0  0  0  0  0  0
   -3.6479   -3.4427   28.9912 C   0  0  0  0  0  0  0  0  0  0  0  0
  1  7  1  0
  7  8  1  0
  7  9  2  0
 11 14  1  0
 14 15  2  0
 14 16  1  0
 17 18  1  0
 16 26  1  0
 26 27  1  0
  5 10  2  0
 10 11  1  0
 11 12  2  0
 13  3  2  0
  1  2  2  0
  2  3  1  0
  3  5  1  0
  5  6  1  0
  6  4  2  0
  4  1  1  0
 12 13  1  0
 13 17  1  0
 17 19  2  0
 24 25  2  0
 25 12  1  0
 19 20  1  0
 20 21  2  0
 21 22  1  0
 22 23  2  0
 23 24  1  0
 24 19  1  0
M  END
$$$$
