No_3435-complexes_sdf/6BKW-FPZ/2024-09-17-14-21-01/
     RDKit          3D

 40 43  0  0  0  0  0  0  0  0999 V2000
   -7.7129    4.2099   27.0854 C   0  0  0  0  0  0  0  0  0  0  0  0
   -8.2112    3.0637   26.9225 C   0  0  0  0  0  0  0  0  0  0  0  0
   -8.5108    5.3904   26.9436 C   0  0  0  0  0  0  0  0  0  0  0  0
   -9.7256    5.1955   26.3518 C   0  0  0  0  0  0  0  0  0  0  0  0
   -9.4995    2.8258   26.4878 C   0  0  0  0  0  0  0  0  0  0  0  0
  -10.2542    3.9691   26.2055 C   0  0  0  0  0  0  0  0  0  0  0  0
   -7.9435    6.6171   27.1653 N   0  0  0  0  0  0  0  0  0  0  0  0
   -7.1823    1.9258   27.3075 C   0  0  0  0  0  0  0  0  0  0  0  0
   -7.5806    0.6587   27.0897 N   0  0  0  0  0  0  0  0  0  0  0  0
   -6.7817   -0.3358   27.4408 C   0  0  0  0  0  0  0  0  0  0  0  0
   -5.5453   -0.0009   27.9926 C   0  0  0  0  0  0  0  0  0  0  0  0
   -5.1609    1.3210   28.2024 C   0  0  0  0  0  0  0  0  0  0  0  0
   -5.9516    2.2959   27.8507 C   0  0  0  0  0  0  0  0  0  0  0  0
   -4.6427   -1.1463   28.4069 C   0  0  1  0  0  0  0  0  0  0  0  0
   -3.7662   -1.2055   28.9474 N   0  0  0  0  0  0  0  0  0  0  0  0
   -5.1984   -2.5445   28.0489 C   0  0  0  0  0  0  0  0  0  0  0  0
   -3.2895   -0.2035   29.7999 C   0  0  0  0  0  0  0  0  0  0  0  0
   -2.3852   -0.6495   30.9938 C   0  0  0  0  0  0  0  0  0  0  0  0
   -2.6711   -0.8822   32.1323 C   0  0  0  0  0  0  0  0  0  0  0  0
   -4.0517   -0.5714   32.6655 C   0  0  0  0  0  0  0  0  0  0  0  0
   -5.0794   -0.8162   32.0572 C   0  0  0  0  0  0  0  0  0  0  0  0
   -6.3572   -0.9161   32.8064 C   0  0  0  0  0  0  0  0  0  0  0  0
   -6.4477   -2.1172   33.4319 C   0  0  1  0  0  0  0  0  0  0  0  0
   -5.9492   -2.3847   34.6030 C   0  0  0  0  0  0  0  0  0  0  0  0
   -5.4915   -1.3070   35.3130 C   0  0  0  0  0  0  0  0  0  0  0  0
   -5.2400   -1.4790   36.7896 C   0  0  0  0  0  0  0  0  0  0  0  0
   -4.6346   -0.4180   37.5644 C   0  0  0  0  0  0  0  0  0  0  0  0
   -4.0598    0.6446   36.8628 C   0  0  0  0  0  0  0  0  0  0  0  0
   -3.5157    1.6785   37.7379 C   0  0  0  0  0  0  0  0  0  0  0  0
   -3.6794    1.6978   39.0711 C   0  0  0  0  0  0  0  0  0  0  0  0
   -4.2932    0.6322   39.7182 C   0  0  0  0  0  0  0  0  0  0  0  0
   -4.8299   -0.4119   38.9447 C   0  0  0  0  0  0  0  0  0  0  0  0
   -5.6746   -2.6517   37.3822 C   0  0  0  0  0  0  0  0  0  0  0  0
   -6.2099   -3.6762   36.5869 C   0  0  0  0  0  0  0  0  0  0  0  0
   -6.4181   -3.5105   35.2945 C   0  0  0  0  0  0  0  0  0  0  0  0
   -7.2231   -3.1125   32.7373 C   0  0  0  0  0  0  0  0  0  0  0  0
   -8.6245   -3.0746   32.7443 C   0  0  0  0  0  0  0  0  0  0  0  0
   -9.4187   -3.8639   31.9409 C   0  0  0  0  0  0  0  0  0  0  0  0
   -8.7500   -4.8115   31.1504 C   0  0  0  0  0  0  0  0  0  0  0  0
   -7.3720   -4.9144   31.1685 C   0  0  0  0  0  0  0  0  0  0  0  0
  3  7  1  0
  2  8  1  0
 11 14  1  0
 14 15  1  0
 14 16  1  1
 15 17  1  0
 17 18  2  3
 18 19  1  0
 19 20  1  0
 20 21  1  0
 21 22  2  3
 22 23  1  0
 26 27  1  0
 23 36  1  0
 36 37  2  3
 37 38  1  0
 38 39  2  3
 39 40  1  0
 23 24  1  1
 24 25  2  0
 25 26  1  0
 26 33  2  0
 33 34  1  0
 34 35  2  0
 35 24  1  0
 27 28  2  0
 28 29  1  0
 29 30  2  0
 30 31  1  0
 31 32  2  0
 32 27  1  0
  8  9  2  0
  9 10  1  0
 10 11  2  0
 11 12  1  0
 12 13  2  0
 13  8  1  0
  1  2  2  0
  2  5  1  0
  5  6  2  0
  6  4  1  0
  4  3  2  0
  3  1  1  0
M  END
$$$$
