No_3701-complexes_sdf/6BKW-FPZ/2024-09-17-14-21-01/
     RDKit          3D

 19 21  0  0  0  0  0  0  0  0999 V2000
   -7.9040    3.9820   27.1177 C   0  0  0  0  0  0  0  0  0  0  0  0
   -8.2057    2.8231   26.8733 C   0  0  0  0  0  0  0  0  0  0  0  0
   -7.0130    4.3706   28.1140 C   0  0  0  0  0  0  0  0  0  0  0  0
   -9.3829    2.4374   26.1668 C   0  0  0  0  0  0  0  0  0  0  0  0
   -9.6934    1.0230   26.0164 C   0  0  0  0  0  0  0  0  0  0  0  0
   -8.8160    0.1163   26.5021 C   0  0  0  0  0  0  0  0  0  0  0  0
   -7.6769    0.4330   27.1868 C   0  0  0  0  0  0  0  0  0  0  0  0
   -7.3087    1.7883   27.4390 C   0  0  0  0  0  0  0  0  0  0  0  0
   -8.6240    5.1103   26.4486 C   0  0  0  0  0  0  0  0  0  0  0  0
   -6.8738    5.8085   28.5202 C   0  0  0  0  0  0  0  0  0  0  0  0
   -8.7103    6.2242   27.0641 C   0  0  0  0  0  0  0  0  0  0  0  0
   -7.7203    6.7134   27.9590 C   0  0  0  0  0  0  0  0  0  0  0  0
   -6.8097   -0.6289   27.7701 C   0  0  0  0  0  0  0  0  0  0  0  0
   -5.4886   -0.3443   28.1113 C   0  0  0  0  0  0  0  0  0  0  0  0
   -4.6719   -1.3233   28.7456 C   0  0  0  0  0  0  0  0  0  0  0  0
   -3.3452   -0.9032   29.1331 C   0  0  0  0  0  0  0  0  0  0  0  0
   -2.9071    0.4015   28.8754 C   0  0  0  0  0  0  0  0  0  0  0  0
   -4.8502    0.9376   28.0420 C   0  0  0  0  0  0  0  0  0  0  0  0
   -3.6415    1.2178   28.3875 N   0  0  0  0  0  0  0  0  0  0  0  0
  1  2  1  0
  7 13  1  0
 13 14  1  0
  2  4  2  0
  4  5  1  0
  5  6  2  0
  6  7  1  0
  7  8  2  0
  8  2  1  0
 14 15  2  0
 15 16  1  0
 16 17  2  0
 17 19  1  0
 19 18  2  0
 18 14  1  0
  1  3  2  0
  3 10  1  0
 10 12  2  0
 12 11  1  0
 11  9  2  0
  9  1  1  0
M  END
$$$$
