No_3704-complexes_sdf/6BKW-FPZ/2024-09-17-14-21-01/
     RDKit          3D

 17 19  0  0  0  0  0  0  0  0999 V2000
   -7.9040    3.9820   27.1177 C   0  0  0  0  0  0  0  0  0  0  0  0
   -8.2057    2.8231   26.8733 C   0  0  0  0  0  0  0  0  0  0  0  0
   -8.7463    4.9537   27.6708 C   0  0  0  0  0  0  0  0  0  0  0  0
   -8.3921    6.3606   27.8466 C   0  0  1  0  0  0  0  0  0  0  0  0
   -9.5482    2.3521   27.1946 C   0  0  0  0  0  0  0  0  0  0  0  0
   -9.8721    0.9835   27.0022 C   0  0  0  0  0  0  0  0  0  0  0  0
  -10.0673    4.5450   27.9593 C   0  0  0  0  0  0  0  0  0  0  0  0
  -10.3837    3.2434   27.8105 C   0  0  0  0  0  0  0  0  0  0  0  0
   -8.9676    0.0679   26.9255 C   0  0  0  0  0  0  0  0  0  0  0  0
   -9.3274   -1.2754   26.8113 C   0  0  0  0  0  0  0  0  0  0  0  0
  -10.6858   -1.6126   26.9284 C   0  0  0  0  0  0  0  0  0  0  0  0
  -11.1931    0.4719   27.2780 C   0  0  0  0  0  0  0  0  0  0  0  0
  -11.5716   -0.7421   27.2348 C   0  0  0  0  0  0  0  0  0  0  0  0
   -7.0365    6.6571   27.4730 C   0  0  0  0  0  0  0  0  0  0  0  0
   -6.9196    8.1108   27.1491 C   0  0  0  0  0  0  0  0  0  0  0  0
   -9.2841    7.2170   26.8829 C   0  0  0  0  0  0  0  0  0  0  0  0
   -8.3478    8.4512   26.7650 C   0  0  0  0  0  0  0  0  0  0  0  0
  4  3  1  6
  5  6  1  0
  4 14  1  0
 14 15  2  0
  4 16  1  0
 15 17  1  0
 16 17  1  0
  6  9  2  0
  9 10  1  0
 10 11  2  0
 11 13  1  0
 13 12  2  0
 12  6  1  0
  1  2  2  0
  2  5  1  0
  5  8  2  0
  8  7  1  0
  7  3  2  0
  3  1  1  0
M  END
$$$$
