No_3399-complexes_sdf/6BKW-FPZ/2024-09-17-14-21-01/
     RDKit          3D

 40 44  0  0  0  0  0  0  0  0999 V2000
   -7.2496    3.8871   27.4508 C   0  0  0  0  0  0  0  0  0  0  0  0
   -8.5096    4.0291   27.2770 C   0  0  0  0  0  0  0  0  0  0  0  0
   -9.3451    2.8786   26.9046 C   0  0  0  0  0  0  0  0  0  0  0  0
   -6.6065    2.5680   27.5073 C   0  0  0  0  0  0  0  0  0  0  0  0
   -7.3970    1.4834   27.2271 C   0  0  0  0  0  0  0  0  0  0  0  0
   -8.7029    1.6398   26.9934 C   0  0  0  0  0  0  0  0  0  0  0  0
   -9.2878    5.2595   27.2401 C   0  0  0  0  0  0  0  0  0  0  0  0
   -8.5055    6.4402   27.0551 C   0  0  0  0  0  0  0  0  0  0  0  0
   -7.4021    6.7074   27.4478 C   0  0  0  0  0  0  0  0  0  0  0  0
   -6.3970    5.7947   27.9040 C   0  0  0  0  0  0  0  0  0  0  0  0
   -6.2236    4.7715   27.8939 C   0  0  0  0  0  0  0  0  0  0  0  0
   -6.7633    0.1444   27.2250 C   0  0  0  0  0  0  0  0  0  0  0  0
   -5.4611   -0.0366   27.6915 C   0  0  0  0  0  0  0  0  0  0  0  0
   -4.8938   -1.3145   27.7645 C   0  0  0  0  0  0  0  0  0  0  0  0
   -5.6131   -2.3530   27.2397 C   0  0  0  0  0  0  0  0  0  0  0  0
   -7.5074   -1.0239   26.9236 C   0  0  0  0  0  0  0  0  0  0  0  0
   -6.9096   -2.2436   26.8944 C   0  0  0  0  0  0  0  0  0  0  0  0
  -10.7589    2.9177   26.6942 C   0  0  0  0  0  0  0  0  0  0  0  0
  -11.5430    2.6209   27.3940 C   0  0  0  0  0  0  0  0  0  0  0  0
  -11.2560    1.9914   28.7807 C   0  0  0  0  0  0  0  0  0  0  0  0
  -12.8283    3.3411   27.5845 C   0  0  0  0  0  0  0  0  0  0  0  0
  -13.3149    4.0518   26.9504 C   0  0  0  0  0  0  0  0  0  0  0  0
  -14.6405    4.7392   26.9725 C   0  0  0  0  0  0  0  0  0  0  0  0
  -15.3542    4.5875   28.1341 C   0  0  0  0  0  0  0  0  0  0  0  0
  -14.8236    3.7455   29.0725 C   0  0  0  0  0  0  0  0  0  0  0  0
  -13.6335    3.1217   28.9395 C   0  0  0  0  0  0  0  0  0  0  0  0
  -11.8453    0.6276   28.6895 C   0  0  0  0  0  0  0  0  0  0  0  0
  -10.9177   -0.4703   28.3680 C   0  0  0  0  0  0  0  0  0  0  0  0
  -11.3515   -1.7852   28.4473 C   0  0  0  0  0  0  0  0  0  0  0  0
  -12.6883   -2.0382   28.7197 C   0  0  0  0  0  0  0  0  0  0  0  0
  -13.5713   -0.9875   29.0240 C   0  0  0  0  0  0  0  0  0  0  0  0
  -13.1301    0.2847   29.0675 C   0  0  0  0  0  0  0  0  0  0  0  0
   -7.7032   -3.4041   26.4987 C   0  0  0  0  0  0  0  0  0  0  0  0
   -8.0986   -4.2195   27.3221 N   0  0  0  0  0  0  0  0  0  0  0  0
   -7.9290   -5.1704   27.6653 C   0  0  0  0  0  0  0  0  0  0  0  0
   -7.8674   -5.9381   28.3736 C   0  0  0  0  0  0  0  0  0  0  0  0
   -8.2232   -3.2941   25.3081 O   0  0  0  0  0  0  0  0  0  0  0  0
   -7.6772   -6.9657   29.0839 C   0  0  0  0  0  0  0  0  0  0  0  0
   -7.9615   -6.8356   30.2497 F   0  0  0  0  0  0  0  0  0  0  0  0
   -6.3488   -7.3593   29.0172 F   0  0  0  0  0  0  0  0  0  0  0  0
  2  7  1  0
  7  8  1  0
  8  9  2  0
  9 10  1  0
  1 11  1  0
 10 11  2  0
  5 12  1  0
  3 18  1  0
 18 19  2  3
 19 20  1  0
 19 21  1  0
 20 27  1  0
 17 33  1  0
 33 34  1  0
 34 35  1  0
 35 36  2  3
 33 37  2  0
 36 38  1  0
 38 39  1  0
 38 40  1  0
 12 13  2  0
 13 14  1  0
 14 15  2  0
 15 17  1  0
 17 16  2  0
 16 12  1  0
 27 28  2  0
 28 29  1  0
 29 30  2  0
 30 31  1  0
 31 32  2  0
 32 27  1  0
  1  2  2  0
  2  3  1  0
  3  6  2  0
  6  5  1  0
  5  4  2  0
  4  1  1  0
 21 22  2  0
 22 23  1  0
 23 24  2  0
 24 25  1  0
 25 26  2  0
 26 21  1  0
M  END
$$$$
