No_3550-complexes_sdf/6BKW-FPZ/2024-09-17-14-21-01/
     RDKit          3D

 26 29  0  0  0  0  0  0  0  0999 V2000
   -7.7129    4.2099   27.0854 C   0  0  0  0  0  0  0  0  0  0  0  0
   -7.7814    5.1722   27.8972 C   0  0  0  0  0  0  0  0  0  0  0  0
   -8.8776    3.8408   26.3416 C   0  0  0  0  0  0  0  0  0  0  0  0
   -8.9136    2.6330   25.5655 C   0  0  0  0  0  0  0  0  0  0  0  0
   -8.8380    6.0976   27.6639 C   0  0  0  0  0  0  0  0  0  0  0  0
   -9.9036    4.7449   26.2606 C   0  0  0  0  0  0  0  0  0  0  0  0
   -9.8428    5.9017   26.9322 C   0  0  0  0  0  0  0  0  0  0  0  0
   -9.6913    1.7185   26.1307 C   0  0  0  0  0  0  0  0  0  0  0  0
   -9.4036    0.4592   25.8862 C   0  0  0  0  0  0  0  0  0  0  0  0
   -8.2551    0.1992   25.1435 C   0  0  2  0  0  0  0  0  0  0  0  0
   -7.9302   -1.1695   24.8976 C   0  0  2  0  0  0  0  0  0  0  0  0
   -6.7071   -1.3962   24.1258 C   0  0  0  0  0  0  0  0  0  0  0  0
   -5.5980   -1.8103   24.7793 C   0  0  0  0  0  0  0  0  0  0  0  0
   -4.9578   -0.8145   25.5379 C   0  0  2  0  0  0  0  0  0  0  0  0
   -3.7974   -1.1426   26.3463 C   0  0  0  0  0  0  0  0  0  0  0  0
   -3.2313   -0.1435   26.8546 O   0  0  0  0  0  0  0  0  0  0  0  0
   -3.9859    0.7694   27.5315 C   0  0  1  0  0  0  0  0  0  0  0  0
   -5.4217    0.6049   27.4654 C   0  0  2  0  0  0  0  0  0  0  0  0
   -5.8979   -0.0712   26.2977 C   0  0  1  0  0  0  0  0  0  0  0  0
   -7.3060    0.2412   25.8918 C   0  0  0  0  0  0  0  0  0  0  0  0
   -3.5440    0.8069   28.9099 O   0  0  0  0  0  0  0  0  0  0  0  0
   -6.3630    1.5126   27.8652 O   0  0  0  0  0  0  0  0  0  0  0  0
   -9.1722   -1.6833   24.2723 C   0  0  0  0  0  0  0  0  0  0  0  0
   -9.2026   -2.3085   23.4854 C   0  0  0  0  0  0  0  0  0  0  0  0
  -10.4286   -2.8213   22.8086 C   0  0  0  0  0  0  0  0  0  0  0  0
  -10.3808   -0.3209   24.8485 C   0  0  0  0  0  0  0  0  0  0  0  0
  3  4  1  0
  4  8  1  0
  8  9  2  3
  9 10  1  0
 10 11  1  0
 11 12  1  6
 12 13  1  0
 14 13  1  1
 14 15  1  0
 15 16  1  0
 16 17  1  0
 17 18  1  0
 14 19  1  0
 18 19  1  0
 10 20  1  1
 19 20  1  6
 17 21  1  1
 18 22  1  6
 11 23  1  0
 23 24  2  3
 24 25  1  0
  9 26  1  0
 23 26  1  0
  1  2  2  0
  2  5  1  0
  5  7  2  0
  7  6  1  0
  6  3  2  0
  3  1  1  0
M  END
$$$$
