No_3283-complexes_sdf/6BKW-FPZ/2024-09-17-14-21-01/
     RDKit          3D

  9  9  0  0  0  0  0  0  0  0999 V2000
   -7.7129    4.2099   27.0854 C   0  0  0  0  0  0  0  0  0  0  0  0
   -8.9133    4.4736   27.0998 C   0  0  0  0  0  0  0  0  0  0  0  0
   -9.7785    3.9136   27.0578 C   0  0  0  0  0  0  0  0  0  0  0  0
   -7.3514    2.8197   27.1958 C   0  0  0  0  0  0  0  0  0  0  0  0
   -8.4036    1.9410   27.1105 C   0  0  0  0  0  0  0  0  0  0  0  0
   -9.6711    2.4461   27.0888 C   0  0  0  0  0  0  0  0  0  0  0  0
   -8.8315    6.1441   26.9833 C   0  0  0  0  0  0  0  0  0  0  0  0
   -8.6690    6.8858   28.0246 N   0  0  0  0  0  0  0  0  0  0  0  0
   -8.9750    6.5668   25.7528 O   0  0  0  0  0  0  0  0  0  0  0  0
  2  7  1  0
  7  8  1  0
  7  9  2  0
  1  2  2  0
  2  3  1  0
  3  6  2  0
  6  5  1  0
  5  4  2  0
  4  1  1  0
M  END
$$$$
