No_3601-complexes_sdf/6BKW-FPZ/2024-09-17-14-21-01/
     RDKit          3D

 32 35  0  0  0  0  0  0  0  0999 V2000
   -7.9040    3.9820   27.1177 C   0  0  0  0  0  0  0  0  0  0  0  0
   -9.0711    4.3164   27.0630 C   0  0  0  0  0  0  0  0  0  0  0  0
   -9.8698    3.9665   25.9495 C   0  0  0  0  0  0  0  0  0  0  0  0
   -7.4046    2.7946   26.4568 C   0  0  0  0  0  0  0  0  0  0  0  0
   -8.3645    2.1023   25.7152 C   0  0  0  0  0  0  0  0  0  0  0  0
  -11.1282    4.5710   25.7144 C   0  0  0  0  0  0  0  0  0  0  0  0
   -9.5827    2.7475   25.3307 C   0  0  0  0  0  0  0  0  0  0  0  0
   -6.7843    4.6637   28.3330 Cl  0  0  0  0  0  0  0  0  0  0  0  0
  -10.4014    2.1823   24.3620 C   0  0  1  0  0  0  0  0  0  0  0  0
  -10.0812    1.9232   23.2992 C   0  0  0  0  0  0  0  0  0  0  0  0
  -10.8272    1.4532   22.1360 C   0  0  0  0  0  0  0  0  0  0  0  0
  -10.2451    1.0225   20.9594 C   0  0  0  0  0  0  0  0  0  0  0  0
   -9.8185   -0.0480   20.9532 C   0  0  0  0  0  0  0  0  0  0  0  0
   -9.5294   -0.8169   19.8298 C   0  0  0  0  0  0  0  0  0  0  0  0
  -11.3258    1.1213   25.0250 C   0  0  0  0  0  0  0  0  0  0  0  0
   -9.9490   -2.1320   19.8380 C   0  0  0  0  0  0  0  0  0  0  0  0
   -9.9393   -2.8183   18.5950 C   0  0  0  0  0  0  0  0  0  0  0  0
   -9.4347   -2.2041   17.5100 C   0  0  0  0  0  0  0  0  0  0  0  0
   -9.1887   -0.9280   17.4883 C   0  0  0  0  0  0  0  0  0  0  0  0
   -9.3070   -0.2188   18.5866 C   0  0  0  0  0  0  0  0  0  0  0  0
  -12.4216    0.8104   24.1738 C   0  0  0  0  0  0  0  0  0  0  0  0
  -12.1425    2.3685   22.2096 C   0  0  0  0  0  0  0  0  0  0  0  0
  -13.3768   -0.0870   24.8623 C   0  0  0  0  0  0  0  0  0  0  0  0
  -12.7594    1.2369   22.9337 C   0  0  2  0  0  0  0  0  0  0  0  0
  -11.1069    0.6225   26.2671 C   0  0  0  0  0  0  0  0  0  0  0  0
  -12.0164   -0.2168   26.8848 C   0  0  0  0  0  0  0  0  0  0  0  0
  -13.1041   -0.6515   26.1257 C   0  0  0  0  0  0  0  0  0  0  0  0
  -14.0270    0.8280   22.3433 C   0  0  0  0  0  0  0  0  0  0  0  0
  -14.2297    0.7155   21.3452 C   0  0  0  0  0  0  0  0  0  0  0  0
  -15.1812    0.2918   20.5619 C   0  0  0  0  0  0  0  0  0  0  0  0
  -16.2761   -0.2273   21.3008 C   0  0  0  0  0  0  0  0  0  0  0  0
  -16.2179   -0.1404   22.6788 C   0  0  0  0  0  0  0  0  0  0  0  0
  3  6  1  0
  1  8  1  0
  9  7  1  1
  9 10  1  0
 10 11  2  0
 11 12  1  0
 12 13  2  3
 13 14  1  0
  9 15  1  0
 11 22  1  0
 21 24  1  0
 24 22  1  1
 24 28  1  0
 28 29  2  3
 29 30  1  0
 30 31  2  3
 31 32  1  0
 15 21  2  0
 21 23  1  0
 23 27  2  0
 27 26  1  0
 26 25  2  0
 25 15  1  0
 14 16  2  0
 16 17  1  0
 17 18  2  0
 18 19  1  0
 19 20  2  0
 20 14  1  0
  1  2  2  0
  2  3  1  0
  3  7  2  0
  7  5  1  0
  5  4  2  0
  4  1  1  0
M  END
$$$$
