No_3068-complexes_sdf/6BKW-FPZ/2024-09-17-14-21-01/
     RDKit          3D

 34 40  0  0  0  0  0  0  0  0999 V2000
   -7.9040    3.9820   27.1177 C   0  0  0  0  0  0  0  0  0  0  0  0
   -7.8663    4.8694   27.9238 C   0  0  0  0  0  0  0  0  0  0  0  0
   -9.0491    3.8523   26.2542 C   0  0  0  0  0  0  0  0  0  0  0  0
   -8.7661    5.9491   27.9690 C   0  0  0  0  0  0  0  0  0  0  0  0
   -9.9295    4.8502   26.2323 C   0  0  0  0  0  0  0  0  0  0  0  0
   -9.8077    5.9288   27.0933 C   0  0  0  0  0  0  0  0  0  0  0  0
   -9.0726    2.7074   25.3087 C   0  0  0  0  0  0  0  0  0  0  0  0
   -8.6026    1.4628   25.7488 C   0  0  0  0  0  0  0  0  0  0  0  0
   -9.8167    2.8097   24.1154 C   0  0  0  0  0  0  0  0  0  0  0  0
   -8.0518    1.2857   26.9330 C   0  0  0  0  0  0  0  0  0  0  0  0
   -7.3876    2.6053   27.5790 C   0  0  0  0  0  0  0  0  0  0  0  0
   -9.9356    1.7561   23.2312 C   0  0  0  0  0  0  0  0  0  0  0  0
   -9.3113    0.5092   23.6619 C   0  0  0  0  0  0  0  0  0  0  0  0
   -8.7006    0.3949   24.8349 C   0  0  0  0  0  0  0  0  0  0  0  0
   -9.3993   -0.5843   22.6467 C   0  0  0  0  0  0  0  0  0  0  0  0
   -8.3371   -1.2662   22.3982 C   0  0  0  0  0  0  0  0  0  0  0  0
   -8.2445   -2.2370   21.3752 C   0  0  0  0  0  0  0  0  0  0  0  0
   -9.3421   -2.3657   20.4956 C   0  0  0  0  0  0  0  0  0  0  0  0
  -10.5112   -0.8557   21.9019 C   0  0  0  0  0  0  0  0  0  0  0  0
  -10.4723   -1.6637   20.7949 C   0  0  0  0  0  0  0  0  0  0  0  0
   -7.1257    0.0856   27.0692 C   0  0  0  0  0  0  0  0  0  0  0  0
   -5.8207    0.2876   26.9543 C   0  0  0  0  0  0  0  0  0  0  0  0
   -4.8974   -0.7928   27.1839 C   0  0  0  0  0  0  0  0  0  0  0  0
   -5.2591   -1.9222   27.0972 C   0  0  0  0  0  0  0  0  0  0  0  0
   -6.6842   -2.2197   27.1508 C   0  0  0  0  0  0  0  0  0  0  0  0
   -7.6087   -1.1820   27.1571 C   0  0  0  0  0  0  0  0  0  0  0  0
   -9.0149   -1.5260   27.1530 C   0  0  0  0  0  0  0  0  0  0  0  0
   -9.5887   -2.5084   26.6397 C   0  0  0  0  0  0  0  0  0  0  0  0
  -10.9430   -2.7551   26.6188 C   0  0  0  0  0  0  0  0  0  0  0  0
  -11.4517   -3.8321   25.8629 C   0  0  0  0  0  0  0  0  0  0  0  0
  -10.5480   -4.6924   25.1949 C   0  0  0  0  0  0  0  0  0  0  0  0
   -9.1898   -4.4878   25.2284 C   0  0  0  0  0  0  0  0  0  0  0  0
   -8.6967   -3.3710   25.9224 C   0  0  0  0  0  0  0  0  0  0  0  0
   -7.2230   -3.2766   26.0969 C   0  0  0  0  0  0  0  0  0  0  0  0
 13 15  1  0
 10 21  1  0
 28 29  2  0
 29 30  1  0
 30 31  2  0
 31 32  1  0
 32 33  2  0
  8 14  2  0
 14 13  1  0
 13 12  2  0
 12  9  1  0
  9  7  2  0
  3  7  1  0
  7  8  1  0
  8 10  1  0
 10 11  2  0
 11  1  1  0
 15 16  2  0
 16 17  1  0
 17 18  2  0
 18 20  1  0
 20 19  2  0
 19 15  1  0
  1  2  2  0
  2  4  1  0
  4  6  2  0
  6  5  1  0
  5  3  2  0
  3  1  1  0
 26 27  2  0
 27 28  1  0
 28 33  1  0
 33 34  1  0
 34 25  2  0
 21 22  2  0
 22 23  1  0
 23 24  2  0
 24 25  1  0
 25 26  1  0
 26 21  1  0
M  END
$$$$
