No_3277-complexes_sdf/6BKW-FPZ/2024-09-17-14-21-01/
     RDKit          3D

 16 16  0  0  0  0  0  0  0  0999 V2000
   -7.7129    4.2099   27.0854 C   0  0  2  0  0  0  0  0  0  0  0  0
   -8.9133    4.4736   27.0998 C   0  0  0  0  0  0  0  0  0  0  0  0
   -9.7135    3.9633   26.0300 C   0  0  0  0  0  0  0  0  0  0  0  0
   -6.8655    4.8824   28.1822 C   0  0  0  0  0  0  0  0  0  0  0  0
   -9.2221    2.8459   25.3619 C   0  0  0  0  0  0  0  0  0  0  0  0
   -8.6389    2.0467   26.0470 C   0  0  0  0  0  0  0  0  0  0  0  0
   -7.9257    2.3156   27.2789 C   0  0  2  0  0  0  0  0  0  0  0  0
   -6.7991    1.8017   27.8071 C   0  0  0  0  0  0  0  0  0  0  0  0
   -7.1226    4.1383   26.0304 F   0  0  0  0  0  0  0  0  0  0  0  0
   -8.8792    2.3009   28.3441 O   0  0  0  0  0  0  0  0  0  0  0  0
   -6.5593    0.4095   27.8736 C   0  0  0  0  0  0  0  0  0  0  0  0
   -7.4957   -0.4960   27.4952 C   0  0  0  0  0  0  0  0  0  0  0  0
   -7.5417   -1.4341   27.8406 C   0  0  0  0  0  0  0  0  0  0  0  0
   -6.4271   -2.0915   28.5663 C   0  0  0  0  0  0  0  0  0  0  0  0
   -5.3750   -1.3404   28.9417 C   0  0  0  0  0  0  0  0  0  0  0  0
   -5.4273    0.0042   28.6660 C   0  0  0  0  0  0  0  0  0  0  0  0
  1  2  1  0
  2  3  2  3
  1  4  1  1
  3  5  1  0
  5  6  2  3
  6  7  1  0
  7  8  1  0
  1  9  1  0
  7 10  1  1
  8 11  1  0
 11 12  2  0
 12 13  1  0
 13 14  2  0
 14 15  1  0
 15 16  2  0
 16 11  1  0
M  END
$$$$
