No_3700-complexes_sdf/6BKW-FPZ/2024-09-17-14-21-01/
     RDKit          3D

 34 37  0  0  0  0  0  0  0  0999 V2000
   -7.2496    3.8871   27.4508 C   0  0  0  0  0  0  0  0  0  0  0  0
   -8.5096    4.0291   27.2770 C   0  0  0  0  0  0  0  0  0  0  0  0
   -9.3502    2.8685   26.8763 C   0  0  0  0  0  0  0  0  0  0  0  0
   -6.6288    2.5513   27.4938 C   0  0  0  0  0  0  0  0  0  0  0  0
   -7.4365    1.4714   27.2032 C   0  0  0  0  0  0  0  0  0  0  0  0
   -8.7772    1.6579   26.9338 C   0  0  0  0  0  0  0  0  0  0  0  0
   -9.1078    5.3660   27.2249 C   0  0  0  0  0  0  0  0  0  0  0  0
   -8.7000    6.1682   26.4702 F   0  0  0  0  0  0  0  0  0  0  0  0
   -9.0805    5.9237   28.5737 F   0  0  0  0  0  0  0  0  0  0  0  0
  -10.5333    5.2453   27.0954 F   0  0  0  0  0  0  0  0  0  0  0  0
   -6.7910    0.1925   27.1582 C   0  0  0  0  0  0  0  0  0  0  0  0
   -5.5859   -0.0832   27.8179 C   0  0  0  0  0  0  0  0  0  0  0  0
   -4.9752   -1.3452   27.8204 C   0  0  0  0  0  0  0  0  0  0  0  0
   -5.6085   -2.3043   27.0298 C   0  0  0  0  0  0  0  0  0  0  0  0
   -7.4139   -0.9130   26.5086 C   0  0  0  0  0  0  0  0  0  0  0  0
   -6.7950   -2.1152   26.4416 C   0  0  0  0  0  0  0  0  0  0  0  0
   -3.6956   -1.5169   28.5280 C   0  0  1  0  0  0  0  0  0  0  0  0
   -3.3567   -0.7073   29.5596 C   0  0  0  0  0  0  0  0  0  0  0  0
   -3.6285   -0.7225   30.5783 C   0  0  0  0  0  0  0  0  0  0  0  0
   -3.2846    0.4104   31.6527 C   0  0  0  0  0  0  0  0  0  0  0  0
   -4.4532   -1.7642   31.2423 C   0  0  0  0  0  0  0  0  0  0  0  0
   -5.0656   -1.5883   32.5052 C   0  0  0  0  0  0  0  0  0  0  0  0
   -4.6188   -0.6620   33.4459 C   0  0  0  0  0  0  0  0  0  0  0  0
   -3.6886    0.2645   32.9973 C   0  0  0  0  0  0  0  0  0  0  0  0
   -2.9944   -2.7231   28.3007 C   0  0  0  0  0  0  0  0  0  0  0  0
   -5.0942   -0.6303   34.7029 O   0  0  0  0  0  0  0  0  0  0  0  0
   -4.6696   -1.5798   35.6334 C   0  0  0  0  0  0  0  0  0  0  0  0
   -5.2851   -1.3099   36.8502 C   0  0  0  0  0  0  0  0  0  0  0  0
   -5.2235   -2.2650   37.8721 C   0  0  0  0  0  0  0  0  0  0  0  0
   -4.3367   -3.3336   37.6683 C   0  0  0  0  0  0  0  0  0  0  0  0
   -3.7670   -3.5382   36.4777 C   0  0  0  0  0  0  0  0  0  0  0  0
   -3.9601   -2.6566   35.4152 C   0  0  0  0  0  0  0  0  0  0  0  0
   -2.4073   -3.0334   27.5201 N   0  0  0  0  0  0  0  0  0  0  0  0
   -1.7105   -4.2206   27.3277 C   0  0  0  0  0  0  0  0  0  0  0  0
  2  7  1  0
  7  8  1  0
  7  9  1  0
  7 10  1  0
  5 11  1  0
 13 17  1  0
 17 18  1  1
 17 25  1  0
 23 26  1  0
 26 27  1  0
 25 33  2  3
 33 34  1  0
 18 19  1  0
 19 20  2  0
 20 24  1  0
 24 23  2  0
 23 22  1  0
 22 21  2  0
 21 19  1  0
 27 28  2  0
 28 29  1  0
 29 30  2  0
 30 31  1  0
 31 32  2  0
 32 27  1  0
  1  2  2  0
  2  3  1  0
  3  6  2  0
  6  5  1  0
  5  4  2  0
  4  1  1  0
 11 12  2  0
 12 13  1  0
 13 14  2  0
 14 16  1  0
 16 15  2  0
 15 11  1  0
M  END
$$$$
