No_3948-complexes_sdf/6BKW-FPZ/2024-09-17-14-21-01/
     RDKit          3D

 17 18  0  0  0  0  0  0  0  0999 V2000
   -7.7129    4.2099   27.0854 C   0  0  0  0  0  0  0  0  0  0  0  0
   -8.2112    3.0637   26.9225 C   0  0  0  0  0  0  0  0  0  0  0  0
   -8.5108    5.3904   26.9436 C   0  0  0  0  0  0  0  0  0  0  0  0
   -9.7256    5.1955   26.3518 C   0  0  0  0  0  0  0  0  0  0  0  0
   -9.4995    2.8258   26.4878 C   0  0  0  0  0  0  0  0  0  0  0  0
  -10.2542    3.9691   26.2055 C   0  0  0  0  0  0  0  0  0  0  0  0
   -7.8138    6.9227   27.2348 Cl  0  0  0  0  0  0  0  0  0  0  0  0
   -7.3640    1.8353   27.2492 C   0  0  0  0  0  0  0  0  0  0  0  0
   -6.4067    2.1140   28.0185 F   0  0  0  0  0  0  0  0  0  0  0  0
   -7.9917    0.8496   27.8060 F   0  0  0  0  0  0  0  0  0  0  0  0
   -6.8512    1.3171   26.0548 F   0  0  0  0  0  0  0  0  0  0  0  0
  -11.5774    3.8196   25.6254 C   0  0  0  0  0  0  0  0  0  0  0  0
  -11.8591    3.7099   24.2507 C   0  0  0  0  0  0  0  0  0  0  0  0
  -13.0330    3.8462   23.7021 C   0  0  0  0  0  0  0  0  0  0  0  0
  -12.6778    3.8085   26.5098 C   0  0  0  0  0  0  0  0  0  0  0  0
  -14.0088    3.9464   25.9910 C   0  0  0  0  0  0  0  0  0  0  0  0
  -14.1538    4.0016   24.5762 C   0  0  0  0  0  0  0  0  0  0  0  0
  3  7  1  0
  2  8  1  0
  8  9  1  0
  8 10  1  0
  8 11  1  0
  6 12  1  0
 12 13  2  0
 13 14  1  0
 14 17  2  0
 17 16  1  0
 16 15  2  0
 15 12  1  0
  1  2  2  0
  2  5  1  0
  5  6  2  0
  6  4  1  0
  4  3  2  0
  3  1  1  0
M  END
$$$$
