No_3689-complexes_sdf/6BKW-FPZ/2024-09-17-14-21-01/
     RDKit          3D

 27 30  0  0  0  0  0  0  0  0999 V2000
   -7.7129    4.2099   27.0854 C   0  0  0  0  0  0  0  0  0  0  0  0
   -8.9133    4.4736   27.0998 C   0  0  0  0  0  0  0  0  0  0  0  0
   -9.4643    5.5426   27.7628 C   0  0  0  0  0  0  0  0  0  0  0  0
   -9.8091    3.6358   26.2841 C   0  0  0  0  0  0  0  0  0  0  0  0
  -10.3717    2.5594   26.9241 C   0  0  0  0  0  0  0  0  0  0  0  0
  -10.9894    1.7053   26.4703 C   0  0  0  0  0  0  0  0  0  0  0  0
   -6.8295    4.9035   28.0852 C   0  0  0  0  0  0  0  0  0  0  0  0
   -8.6339    6.4084   28.5159 C   0  0  0  0  0  0  0  0  0  0  0  0
   -7.2980    5.9760   28.6216 C   0  0  0  0  0  0  0  0  0  0  0  0
  -10.1265    3.9114   24.9648 C   0  0  0  0  0  0  0  0  0  0  0  0
  -10.8823    2.9840   24.2907 C   0  0  0  0  0  0  0  0  0  0  0  0
  -11.2676    3.1210   22.9249 C   0  0  0  0  0  0  0  0  0  0  0  0
  -11.4047    1.8565   25.0307 C   0  0  0  0  0  0  0  0  0  0  0  0
  -12.1787    4.0628   22.5893 C   0  0  0  0  0  0  0  0  0  0  0  0
  -10.6015    2.4335   21.9426 C   0  0  0  0  0  0  0  0  0  0  0  0
  -10.8098    2.6437   20.5575 C   0  0  0  0  0  0  0  0  0  0  0  0
  -12.4712    4.3295   21.2074 C   0  0  0  0  0  0  0  0  0  0  0  0
  -11.7655    3.6256   20.1942 C   0  0  0  0  0  0  0  0  0  0  0  0
  -11.5657    0.4796   27.1097 C   0  0  0  0  0  0  0  0  0  0  0  0
  -12.4836    0.5977   27.9819 C   0  0  0  0  0  0  0  0  0  0  0  0
  -12.9034   -0.4849   28.7710 C   0  0  0  0  0  0  0  0  0  0  0  0
  -12.2589   -1.7107   28.6048 C   0  0  0  0  0  0  0  0  0  0  0  0
  -11.0819   -0.7531   26.9644 C   0  0  0  0  0  0  0  0  0  0  0  0
  -11.3324   -1.8229   27.6974 C   0  0  0  0  0  0  0  0  0  0  0  0
  -12.6822   -2.7966   29.3834 O   0  0  0  0  0  0  0  0  0  0  0  0
  -13.0287   -3.7390   29.1570 C   0  0  0  0  0  0  0  0  0  0  0  0
  -13.5844   -4.3635   29.8621 C   0  0  0  0  0  0  0  0  0  0  0  0
  2  4  1  0
 11 12  1  0
  6 19  1  0
 22 25  1  0
 25 26  1  0
 26 27  2  0
  4  5  2  0
  5  6  1  0
  6 13  2  0
 13 11  1  0
 11 10  2  0
 10  4  1  0
  1  2  2  0
  2  3  1  0
  3  8  2  0
  8  9  1  0
  9  7  2  0
  7  1  1  0
 12 14  2  0
 14 17  1  0
 17 18  2  0
 18 16  1  0
 16 15  2  0
 15 12  1  0
 19 20  2  0
 20 21  1  0
 21 22  2  0
 22 24  1  0
 24 23  2  0
 23 19  1  0
M  END
$$$$
