No_3035-complexes_sdf/6BKW-FPZ/2024-09-17-14-21-01/
     RDKit          3D

 16 18  0  0  0  0  0  0  0  0999 V2000
   -7.7129    4.2099   27.0854 C   0  0  0  0  0  0  0  0  0  0  0  0
   -7.7814    5.1722   27.8972 C   0  0  0  0  0  0  0  0  0  0  0  0
   -8.8776    3.8408   26.3416 C   0  0  0  0  0  0  0  0  0  0  0  0
   -8.9136    2.6330   25.5655 C   0  0  0  0  0  0  0  0  0  0  0  0
   -8.8361    6.1389   27.9032 C   0  0  0  0  0  0  0  0  0  0  0  0
   -9.9718    4.7048   26.3433 C   0  0  0  0  0  0  0  0  0  0  0  0
   -9.9205    5.8499   27.1013 C   0  0  0  0  0  0  0  0  0  0  0  0
   -9.8120    2.4147   24.5722 C   0  0  0  0  0  0  0  0  0  0  0  0
  -10.8101    3.4828   24.4248 C   0  0  0  0  0  0  0  0  0  0  0  0
  -10.9255    4.4880   25.3075 C   0  0  0  0  0  0  0  0  0  0  0  0
  -11.8161    3.2205   23.3768 C   0  0  0  0  0  0  0  0  0  0  0  0
  -12.9414    2.7023   23.5358 C   0  0  0  0  0  0  0  0  0  0  0  0
  -11.4341    3.7636   22.0525 C   0  0  0  0  0  0  0  0  0  0  0  0
  -13.8896    2.5857   22.6005 C   0  0  0  0  0  0  0  0  0  0  0  0
  -13.6283    3.0829   21.3050 C   0  0  0  0  0  0  0  0  0  0  0  0
  -12.3283    3.6895   21.0321 C   0  0  0  0  0  0  0  0  0  0  0  0
  9 11  1  0
 11 12  2  0
 12 14  1  0
 14 15  2  0
 15 16  1  0
 16 13  2  0
 13 11  1  0
  3  4  2  0
  4  8  1  0
  8  9  2  0
  9 10  1  0
 10  6  2  0
  1  2  2  0
  2  5  1  0
  5  7  2  0
  7  6  1  0
  6  3  1  0
  3  1  1  0
M  END
$$$$
