No_3919-complexes_sdf/6BKW-FPZ/2024-09-17-14-21-01/
     RDKit          3D

 31 35  0  0  0  0  0  0  0  0999 V2000
   -7.9040    3.9820   27.1177 C   0  0  0  0  0  0  0  0  0  0  0  0
   -9.0711    4.3164   27.0630 C   0  0  0  0  0  0  0  0  0  0  0  0
   -9.9692    3.7224   26.1073 C   0  0  0  0  0  0  0  0  0  0  0  0
   -6.9787    4.6761   28.1003 C   0  0  0  0  0  0  0  0  0  0  0  0
  -11.1978    4.2793   25.7845 C   0  0  0  0  0  0  0  0  0  0  0  0
  -11.9722    3.7671   24.7671 C   0  0  0  0  0  0  0  0  0  0  0  0
  -11.4321    2.7931   23.9433 C   0  0  0  0  0  0  0  0  0  0  0  0
  -10.2070    2.2970   24.1835 C   0  0  0  0  0  0  0  0  0  0  0  0
   -9.3944    2.8078   25.1975 C   0  0  0  0  0  0  0  0  0  0  0  0
   -7.5140    5.6743   28.8888 C   0  0  0  0  0  0  0  0  0  0  0  0
   -9.4880    5.3919   27.8970 C   0  0  0  0  0  0  0  0  0  0  0  0
   -8.7303    6.0841   28.7261 C   0  0  0  0  0  0  0  0  0  0  0  0
  -12.2417    2.2051   22.8408 C   0  0  0  0  0  0  0  0  0  0  0  0
  -11.7144    1.7063   21.9061 C   0  0  0  0  0  0  0  0  0  0  0  0
  -10.2727    1.1484   22.0296 C   0  0  0  0  0  0  0  0  0  0  0  0
   -9.5278    1.4708   23.1613 C   0  0  0  0  0  0  0  0  0  0  0  0
   -5.7322    4.1979   28.2122 F   0  0  0  0  0  0  0  0  0  0  0  0
  -12.3730    1.0878   20.6935 C   0  0  0  0  0  0  0  0  0  0  0  0
  -13.3346    0.1670   21.0159 C   0  0  0  0  0  0  0  0  0  0  0  0
  -14.0887   -0.3142   20.0488 C   0  0  0  0  0  0  0  0  0  0  0  0
  -13.8498    0.0765   18.6704 C   0  0  0  0  0  0  0  0  0  0  0  0
  -12.8376    0.9591   18.3748 C   0  0  0  0  0  0  0  0  0  0  0  0
  -12.0218    1.5326   19.4024 C   0  0  0  0  0  0  0  0  0  0  0  0
  -13.3048    4.3117   24.5833 C   0  0  0  0  0  0  0  0  0  0  0  0
  -14.1495    4.3190   25.5920 N   0  0  0  0  0  0  0  0  0  0  0  0
  -15.2469    5.0464   25.6093 C   0  0  0  0  0  0  0  0  0  0  0  0
  -13.8634    3.6446   26.7042 C   0  0  0  0  0  0  0  0  0  0  0  0
  -14.8596    3.6076   27.7088 C   0  0  0  0  0  0  0  0  0  0  0  0
  -16.2118    5.1343   26.5847 C   0  0  0  0  0  0  0  0  0  0  0  0
  -15.9344    4.4427   27.7393 C   0  0  0  0  0  0  0  0  0  0  0  0
  -13.6371    4.7371   23.4760 O   0  0  0  0  0  0  0  0  0  0  0  0
  2  3  1  0
  4 17  1  0
 14 18  1  0
  6 24  1  0
 24 25  1  0
 25 26  1  0
 25 27  1  0
 28 30  1  0
 29 30  1  0
 24 31  2  0
 26 29  1  0
 28 27  1  0
 18 19  2  0
 19 20  1  0
 20 21  2  0
 21 22  1  0
 22 23  2  0
 23 18  1  0
  8 16  1  0
 16 15  2  0
 15 14  1  0
 14 13  2  0
 13  7  1  0
  3  5  2  0
  5  6  1  0
  6  7  2  0
  7  8  1  0
  8  9  2  0
  9  3  1  0
  1  2  2  0
  2 11  1  0
 11 12  2  0
 12 10  1  0
 10  4  2  0
  4  1  1  0
M  END
$$$$
