No_3839-complexes_sdf/6BKW-FPZ/2024-09-17-14-21-01/
     RDKit          3D

 32 35  0  0  0  0  0  0  0  0999 V2000
   -7.2496    3.8871   27.4508 C   0  0  0  0  0  0  0  0  0  0  0  0
   -7.6161    2.7143   27.1523 C   0  0  0  0  0  0  0  0  0  0  0  0
   -8.6211    2.2238   26.4073 C   0  0  0  0  0  0  0  0  0  0  0  0
   -8.2540    4.9237   27.1711 C   0  0  0  0  0  0  0  0  0  0  0  0
   -9.3729    4.5806   26.4432 C   0  0  0  0  0  0  0  0  0  0  0  0
   -9.5830    3.2968   26.1025 C   0  0  0  0  0  0  0  0  0  0  0  0
   -7.9332    6.3206   27.5424 C   0  0  0  0  0  0  0  0  0  0  0  0
   -8.8355    7.2793   27.1605 N   0  0  0  0  0  0  0  0  0  0  0  0
   -8.8797    0.8895   26.0484 C   0  0  0  0  0  0  0  0  0  0  0  0
   -9.1477    0.5127   25.0555 N   0  0  0  0  0  0  0  0  0  0  0  0
   -9.8697    1.0355   24.1894 C   0  0  0  0  0  0  0  0  0  0  0  0
  -10.2402    0.7868   23.2513 C   0  0  0  0  0  0  0  0  0  0  0  0
   -9.9214   -0.5790   22.7602 C   0  0  0  0  0  0  0  0  0  0  0  0
   -8.8400   -0.8317   24.5326 C   0  0  0  0  0  0  0  0  0  0  0  0
   -9.2265   -1.3451   23.4189 C   0  0  0  0  0  0  0  0  0  0  0  0
   -8.6521    0.0927   27.1318 O   0  0  0  0  0  0  0  0  0  0  0  0
   -7.1242    6.5648   28.4618 O   0  0  0  0  0  0  0  0  0  0  0  0
  -11.0744    1.5836   22.1003 C   0  0  0  0  0  0  0  0  0  0  0  0
  -12.2793    1.9459   22.4975 C   0  0  0  0  0  0  0  0  0  0  0  0
  -13.0026    2.7265   21.6704 C   0  0  0  0  0  0  0  0  0  0  0  0
  -12.4809    3.2040   20.4593 C   0  0  0  0  0  0  0  0  0  0  0  0
  -11.1790    2.8981   20.0789 C   0  0  0  0  0  0  0  0  0  0  0  0
  -10.3924    2.1206   20.9513 C   0  0  0  0  0  0  0  0  0  0  0  0
  -10.4248   -0.9245   21.4440 N   0  0  0  0  0  0  0  0  0  0  0  0
  -11.1560   -1.5523   21.1369 C   0  0  0  0  0  0  0  0  0  0  0  0
  -11.5117   -1.8894   20.1624 C   0  0  0  0  0  0  0  0  0  0  0  0
  -11.9790   -1.9709   22.1694 N   0  0  0  0  0  0  0  0  0  0  0  0
  -12.6815   -2.6423   19.7458 C   0  0  0  0  0  0  0  0  0  0  0  0
  -13.1303   -2.6791   22.0177 C   0  0  0  0  0  0  0  0  0  0  0  0
  -13.4944   -3.0574   20.7617 C   0  0  0  0  0  0  0  0  0  0  0  0
  -14.6672   -3.8483   20.4450 C   0  0  0  0  0  0  0  0  0  0  0  0
  -15.4399   -4.2915   21.3725 C   0  0  0  0  0  0  0  0  0  0  0  0
  4  7  1  0
  7  8  1  0
  3  9  1  0
  9 10  1  0
 10 11  1  0
 12 13  1  0
 10 14  1  0
 13 15  1  0
 14 15  1  0
  9 16  2  0
  7 17  2  0
 12 18  1  0
 13 24  1  0
 24 25  1  0
 30 31  1  0
 31 32  2  0
 11 12  1  0
 18 19  2  0
 19 20  1  0
 20 21  2  0
 21 22  1  0
 22 23  2  0
 23 18  1  0
 25 26  2  0
 26 28  1  0
 28 30  2  0
 30 29  1  0
 29 27  2  0
 27 25  1  0
  1  2  2  0
  2  3  1  0
  3  6  2  0
  6  5  1  0
  5  4  2  0
  4  1  1  0
M  END
$$$$
