No_3299-complexes_sdf/6BKW-FPZ/2024-09-17-14-21-01/
     RDKit          3D

 11 12  0  0  0  0  0  0  0  0999 V2000
   -7.7129    4.2099   27.0854 C   0  0  0  0  0  0  0  0  0  0  0  0
   -8.9133    4.4736   27.0998 C   0  0  2  0  0  0  0  0  0  0  0  0
   -9.7135    3.9633   26.0300 C   0  0  0  0  0  0  0  0  0  0  0  0
   -6.8655    4.8824   28.1822 C   0  0  0  0  0  0  0  0  0  0  0  0
   -9.2221    2.8459   25.3619 C   0  0  0  0  0  0  0  0  0  0  0  0
  -10.0341    2.3269   24.3143 C   0  0  0  0  0  0  0  0  0  0  0  0
  -10.9174    3.1230   23.6221 C   0  0  0  0  0  0  0  0  0  0  0  0
  -11.3105    4.3671   24.2251 C   0  0  0  0  0  0  0  0  0  0  0  0
  -10.6859    4.8226   25.3890 C   0  0  0  0  0  0  0  0  0  0  0  0
   -7.6980    5.7277   28.8441 N   0  0  0  0  0  0  0  0  0  0  0  0
   -9.1105    5.5383   28.0574 C   0  0  0  0  0  0  0  0  0  0  0  0
  1  2  1  0
  1  4  1  0
  4 10  2  0
  2 11  1  0
 10 11  1  0
  2  3  1  6
  3  5  2  0
  5  6  1  0
  6  7  2  0
  7  8  1  0
  8  9  2  0
  9  3  1  0
M  END
$$$$
