No_3395-complexes_sdf/6BKW-FPZ/2024-09-17-14-21-01/
     RDKit          3D

 19 21  0  0  0  0  0  0  0  0999 V2000
   -7.7129    4.2099   27.0854 C   0  0  0  0  0  0  0  0  0  0  0  0
   -8.2112    3.0637   26.9225 C   0  0  0  0  0  0  0  0  0  0  0  0
   -7.0021    4.5281   28.2396 C   0  0  0  0  0  0  0  0  0  0  0  0
   -9.4237    2.7810   26.2714 C   0  0  0  0  0  0  0  0  0  0  0  0
   -9.8781    3.7859   25.4663 C   0  0  0  0  0  0  0  0  0  0  0  0
  -10.9397    3.5736   24.5634 C   0  0  0  0  0  0  0  0  0  0  0  0
  -11.2881    4.5936   23.6361 C   0  0  0  0  0  0  0  0  0  0  0  0
  -12.3065    4.3451   22.7400 C   0  0  0  0  0  0  0  0  0  0  0  0
  -13.0278    3.2193   22.7640 C   0  0  0  0  0  0  0  0  0  0  0  0
  -12.7177    2.2496   23.6764 C   0  0  0  0  0  0  0  0  0  0  0  0
  -11.6956    2.4436   24.5523 C   0  0  0  0  0  0  0  0  0  0  0  0
   -9.1905    5.0893   25.5939 C   0  0  0  0  0  0  0  0  0  0  0  0
   -8.4139    5.3327   26.5370 C   0  0  0  0  0  0  0  0  0  0  0  0
  -13.5505    1.0305   23.6736 C   0  0  0  0  0  0  0  0  0  0  0  0
  -14.0561    0.5453   22.9392 C   0  0  0  0  0  0  0  0  0  0  0  0
  -14.6211   -0.3658   22.6439 C   0  0  0  0  0  0  0  0  0  0  0  0
  -14.7381   -1.3141   23.7786 C   0  0  0  0  0  0  0  0  0  0  0  0
  -14.1419   -0.9596   24.9209 C   0  0  0  0  0  0  0  0  0  0  0  0
  -13.4344    0.2280   24.9696 C   0  0  0  0  0  0  0  0  0  0  0  0
  1  2  1  0
  1  3  2  0
  2  4  1  0
  4  5  1  0
  5  6  2  3
  6  7  1  0
  7  8  1  0
  8  9  1  0
  9 10  1  0
  6 11  1  0
 10 11  1  0
  5 12  1  0
  1 13  1  0
 12 13  1  0
 10 14  1  0
 14 15  2  0
 15 16  1  0
 16 17  2  0
 17 18  1  0
 18 19  2  0
 19 14  1  0
M  END
$$$$
