No_3749-complexes_sdf/6BKW-FPZ/2024-09-17-14-21-01/
     RDKit          3D

 22 25  0  0  0  0  0  0  0  0999 V2000
   -7.7129    4.2099   27.0854 C   0  0  0  0  0  0  0  0  0  0  0  0
   -8.9133    4.4736   27.0998 C   0  0  0  0  0  0  0  0  0  0  0  0
   -9.4616    5.6470   27.6290 C   0  0  0  0  0  0  0  0  0  0  0  0
   -6.8722    5.1130   27.9248 C   0  0  0  0  0  0  0  0  0  0  0  0
   -7.3801    6.2535   28.4126 C   0  0  0  0  0  0  0  0  0  0  0  0
   -8.6734    6.5530   28.2150 C   0  0  0  0  0  0  0  0  0  0  0  0
   -9.8157    3.4887   26.3527 C   0  0  0  0  0  0  0  0  0  0  0  0
   -9.9163    3.5905   24.9383 C   0  0  0  0  0  0  0  0  0  0  0  0
  -10.4747    2.6520   24.1583 C   0  0  0  0  0  0  0  0  0  0  0  0
  -10.4498    2.8168   22.7185 C   0  0  0  0  0  0  0  0  0  0  0  0
  -10.6408    1.7630   21.8823 C   0  0  0  0  0  0  0  0  0  0  0  0
  -10.9687    0.5180   22.4275 C   0  0  0  0  0  0  0  0  0  0  0  0
  -10.9860    0.3432   23.7619 C   0  0  0  0  0  0  0  0  0  0  0  0
  -10.6107    1.3401   24.6506 C   0  0  0  0  0  0  0  0  0  0  0  0
  -10.5532    2.5627   27.0793 C   0  0  0  0  0  0  0  0  0  0  0  0
  -10.8435    1.3277   26.3961 C   0  0  0  0  0  0  0  0  0  0  0  0
  -11.3616    0.1131   26.8929 C   0  0  0  0  0  0  0  0  0  0  0  0
  -12.3180    0.2182   27.8241 C   0  0  0  0  0  0  0  0  0  0  0  0
  -12.7294   -0.9086   28.5070 C   0  0  0  0  0  0  0  0  0  0  0  0
  -10.7527   -1.0947   26.6710 C   0  0  0  0  0  0  0  0  0  0  0  0
  -11.1240   -2.2500   27.3614 C   0  0  0  0  0  0  0  0  0  0  0  0
  -12.1364   -2.1128   28.3392 C   0  0  0  0  0  0  0  0  0  0  0  0
  2  7  1  0
 16 17  1  0
 17 18  2  0
 18 19  1  0
 19 22  2  0
 22 21  1  0
 21 20  2  0
 20 17  1  0
  1  2  2  0
  2  3  1  0
  3  6  2  0
  6  5  1  0
  5  4  2  0
  4  1  1  0
  9 10  2  0
 10 11  1  0
 11 12  2  0
 12 13  1  0
 13 14  2  0
  7  8  2  0
  8  9  1  0
  9 14  1  0
 14 16  1  0
 16 15  2  0
 15  7  1  0
M  END
$$$$
