No_3353-complexes_sdf/6BKW-FPZ/2024-09-17-14-21-01/
     RDKit          3D

 18 18  0  0  0  0  0  0  0  0999 V2000
   -7.7129    4.2099   27.0854 C   0  0  0  0  0  0  0  0  0  0  0  0
   -8.2112    3.0637   26.9225 C   0  0  0  0  0  0  0  0  0  0  0  0
   -7.5138    1.9223   27.4249 C   0  0  0  0  0  0  0  0  0  0  0  0
   -8.5309    5.4147   26.8151 C   0  0  0  0  0  0  0  0  0  0  0  0
   -9.6817    5.2393   26.1100 C   0  0  0  0  0  0  0  0  0  0  0  0
  -10.1032    3.9957   25.8534 C   0  0  0  0  0  0  0  0  0  0  0  0
   -9.4034    2.8430   26.2573 C   0  0  0  0  0  0  0  0  0  0  0  0
   -8.1463    0.8385   27.6478 F   0  0  0  0  0  0  0  0  0  0  0  0
   -6.7587    2.1888   28.5604 F   0  0  0  0  0  0  0  0  0  0  0  0
   -6.4958    1.5404   26.4799 F   0  0  0  0  0  0  0  0  0  0  0  0
   -7.9900    6.5920   27.0728 F   0  0  0  0  0  0  0  0  0  0  0  0
  -11.3568    3.8246   25.0655 C   0  0  0  0  0  0  0  0  0  0  0  0
  -11.6669    2.6597   24.4724 C   0  0  0  0  0  0  0  0  0  0  0  0
  -12.8426    2.5693   23.7292 C   0  0  0  0  0  0  0  0  0  0  0  0
  -13.2045    1.3729   23.0872 C   0  0  0  0  0  0  0  0  0  0  0  0
  -12.2978    0.3068   23.1346 C   0  0  0  0  0  0  0  0  0  0  0  0
  -11.0853    0.3723   23.7928 C   0  0  0  0  0  0  0  0  0  0  0  0
  -10.7488    1.6013   24.4361 C   0  0  0  0  0  0  0  0  0  0  0  0
  2  3  1  0
  3  8  1  0
  3  9  1  0
  3 10  1  0
  4 11  1  0
  6 12  1  0
 12 13  2  3
 13 14  1  0
 14 15  2  3
 15 16  1  0
 16 17  2  3
 17 18  1  0
  1  2  2  0
  2  7  1  0
  7  6  2  0
  6  5  1  0
  5  4  2  0
  4  1  1  0
M  END
$$$$
