No_3568-complexes_sdf/6BKW-FPZ/2024-09-17-14-21-01/
     RDKit          3D

 16 16  0  0  0  0  0  0  0  0999 V2000
   -7.9040    3.9820   27.1177 C   0  0  0  0  0  0  0  0  0  0  0  0
   -9.0711    4.3164   27.0630 C   0  0  0  0  0  0  0  0  0  0  0  0
   -9.5182    5.5541   27.5777 C   0  0  0  0  0  0  0  0  0  0  0  0
   -7.4468    2.6843   26.6499 C   0  0  0  0  0  0  0  0  0  0  0  0
   -8.3856    1.7878   26.2216 C   0  0  0  0  0  0  0  0  0  0  0  0
   -9.6812    2.2328   26.0889 C   0  0  0  0  0  0  0  0  0  0  0  0
  -10.0147    3.4312   26.5259 C   0  0  0  0  0  0  0  0  0  0  0  0
   -7.9132    0.4733   25.8127 C   0  0  0  0  0  0  0  0  0  0  0  0
   -8.0164    0.2707   24.5764 F   0  0  0  0  0  0  0  0  0  0  0  0
   -7.7117   -0.4146   26.5469 F   0  0  0  0  0  0  0  0  0  0  0  0
  -10.7174    5.7036   28.0915 F   0  0  0  0  0  0  0  0  0  0  0  0
   -8.7523    6.0217   28.7084 F   0  0  0  0  0  0  0  0  0  0  0  0
   -9.2125    6.6144   26.7074 F   0  0  0  0  0  0  0  0  0  0  0  0
   -6.8553    4.6552   27.7672 O   0  0  0  0  0  0  0  0  0  0  0  0
   -6.8040    0.4403   25.9148 F   0  0  0  0  0  0  0  0  0  0  0  0
  -10.5300    1.4452   25.5282 F   0  0  0  0  0  0  0  0  0  0  0  0
  2  3  1  0
  5  8  1  0
  8  9  1  0
  8 10  1  0
  3 11  1  0
  3 12  1  0
  3 13  1  0
  1 14  1  0
  8 15  1  0
  6 16  1  0
  1  2  2  0
  2  7  1  0
  7  6  2  0
  6  5  1  0
  5  4  2  0
  4  1  1  0
M  END
$$$$
