No_3225-complexes_sdf/6BKW-FPZ/2024-09-17-14-21-01/
     RDKit          3D

 40 45  0  0  0  0  0  0  0  0999 V2000
   -7.2496    3.8871   27.4508 C   0  0  0  0  0  0  0  0  0  0  0  0
   -7.6161    2.7143   27.1523 C   0  0  0  0  0  0  0  0  0  0  0  0
   -6.9719    1.5838   27.5324 C   0  0  0  0  0  0  0  0  0  0  0  0
   -7.4590    0.2827   27.2615 C   0  0  0  0  0  0  0  0  0  0  0  0
   -8.7521    2.5117   26.3068 C   0  0  0  0  0  0  0  0  0  0  0  0
   -9.2100    1.2391   25.9794 C   0  0  0  0  0  0  0  0  0  0  0  0
   -8.5134    0.1313   26.5112 C   0  0  0  0  0  0  0  0  0  0  0  0
   -8.0469    5.0686   27.1938 C   0  0  0  0  0  0  0  0  0  0  0  0
   -7.7056    6.3668   27.8065 C   0  0  0  0  0  0  0  0  0  0  0  0
   -9.1493    5.0111   26.3647 C   0  0  0  0  0  0  0  0  0  0  0  0
   -9.5239    3.6829   25.9019 C   0  0  0  0  0  0  0  0  0  0  0  0
   -6.7198   -0.8891   27.8534 C   0  0  0  0  0  0  0  0  0  0  0  0
   -5.4072   -0.7393   28.2601 C   0  0  0  0  0  0  0  0  0  0  0  0
   -4.8992    0.6317   28.3181 C   0  0  0  0  0  0  0  0  0  0  0  0
   -5.5932    1.7047   28.0901 C   0  0  0  0  0  0  0  0  0  0  0  0
   -3.4945    0.7901   28.9806 C   0  0  0  0  0  0  0  0  0  0  0  0
   -2.8004   -0.4773   29.1437 C   0  0  0  0  0  0  0  0  0  0  0  0
   -3.3830   -1.6889   29.0292 C   0  0  0  0  0  0  0  0  0  0  0  0
   -4.6478   -1.8506   28.5905 C   0  0  0  0  0  0  0  0  0  0  0  0
  -10.6420    3.6064   24.9933 C   0  0  0  0  0  0  0  0  0  0  0  0
  -11.8639    3.3772   25.4646 C   0  0  0  0  0  0  0  0  0  0  0  0
  -10.4345    3.7814   23.6147 C   0  0  0  0  0  0  0  0  0  0  0  0
  -11.3048    3.8072   22.7922 C   0  0  0  0  0  0  0  0  0  0  0  0
  -12.9665    3.4637   24.5759 C   0  0  0  0  0  0  0  0  0  0  0  0
  -12.7115    3.7283   23.2232 C   0  0  0  0  0  0  0  0  0  0  0  0
   -9.1512   -1.2080   26.2452 C   0  0  0  0  0  0  0  0  0  0  0  0
   -9.1285   -1.8112   27.1612 F   0  0  0  0  0  0  0  0  0  0  0  0
   -8.1552   -1.8628   24.8556 Br  0  0  0  0  0  0  0  0  0  0  0  0
  -10.4078   -0.9931   25.7186 F   0  0  0  0  0  0  0  0  0  0  0  0
   -8.4796    7.3823   27.5276 F   0  0  0  0  0  0  0  0  0  0  0  0
   -6.6919    6.4514   28.4659 F   0  0  0  0  0  0  0  0  0  0  0  0
   -2.5293   -2.8611   29.3903 C   0  0  0  0  0  0  0  0  0  0  0  0
   -1.6061   -3.1139   28.7911 C   0  0  0  0  0  0  0  0  0  0  0  0
   -0.7168   -4.2769   29.1014 C   0  0  0  0  0  0  0  0  0  0  0  0
   -1.1128   -5.0880   30.1106 C   0  0  0  0  0  0  0  0  0  0  0  0
   -2.9350   -3.6300   30.5115 C   0  0  0  0  0  0  0  0  0  0  0  0
   -2.2377   -4.7208   30.8688 C   0  0  0  0  0  0  0  0  0  0  0  0
   -2.6600   -5.5489   32.0182 C   0  0  0  0  0  0  0  0  0  0  0  0
   -3.4300   -6.3695   31.9711 O   0  0  0  0  0  0  0  0  0  0  0  0
   -2.3151   -4.8765   33.2538 O   0  0  0  0  0  0  0  0  0  0  0  0
 11 20  1  0
  7 26  1  0
 26 27  1  0
 26 28  1  0
 26 29  1  0
  9 30  1  0
  9 31  1  0
 18 32  1  0
 37 38  1  0
 38 39  2  0
 38 40  1  0
  9  8  1  0
  1  2  2  0
  5 11  2  0
 11 10  1  0
 10  8  2  0
  8  1  1  0
 32 33  2  0
 33 34  1  0
 34 35  2  0
 35 37  1  0
 37 36  2  0
 36 32  1  0
 14 16  1  0
 16 17  2  0
 17 18  1  0
 18 19  2  0
 19 13  1  0
  2  3  1  0
  4  7  1  0
  7  6  2  0
  6  5  1  0
  5  2  1  0
 20 21  2  0
 21 24  1  0
 24 25  2  0
 25 23  1  0
 23 22  2  0
 22 20  1  0
  3  4  2  0
  4 12  1  0
 12 13  2  0
 13 14  1  0
 14 15  2  0
 15  3  1  0
M  END
$$$$
