No_3643-complexes_sdf/6BKW-FPZ/2024-09-17-14-21-01/
     RDKit          3D

 28 30  0  0  0  0  0  0  0  0999 V2000
   -7.2496    3.8871   27.4508 C   0  0  0  0  0  0  0  0  0  0  0  0
   -7.6161    2.7143   27.1523 C   0  0  0  0  0  0  0  0  0  0  0  0
   -8.8302    2.4659   26.5056 C   0  0  0  0  0  0  0  0  0  0  0  0
   -8.1584    5.0090   27.3234 C   0  0  0  0  0  0  0  0  0  0  0  0
   -7.8138    6.3406   27.7108 C   0  0  0  0  0  0  0  0  0  0  0  0
   -9.7360    3.4989   26.3532 C   0  0  0  0  0  0  0  0  0  0  0  0
   -9.3942    4.8432   26.7521 C   0  0  0  0  0  0  0  0  0  0  0  0
   -9.1857    1.0968   26.1448 C   0  0  0  0  0  0  0  0  0  0  0  0
   -9.6641    0.1591   26.9685 C   0  0  0  0  0  0  0  0  0  0  0  0
   -9.9578    0.6285   28.3831 C   0  0  0  0  0  0  0  0  0  0  0  0
   -9.9633   -1.1869   26.6550 C   0  0  0  0  0  0  0  0  0  0  0  0
   -7.7754    7.1858   26.9273 O   0  0  0  0  0  0  0  0  0  0  0  0
   -9.5163   -1.6716   25.7275 C   0  0  0  0  0  0  0  0  0  0  0  0
   -8.8802   -0.7850   24.6710 C   0  0  0  0  0  0  0  0  0  0  0  0
   -8.6542    0.5722   24.8909 C   0  0  0  0  0  0  0  0  0  0  0  0
   -7.2575    6.4658   28.9531 O   0  0  0  0  0  0  0  0  0  0  0  0
  -11.3893    1.1700   28.5018 C   0  0  0  0  0  0  0  0  0  0  0  0
  -11.9183    1.5649   27.7328 C   0  0  0  0  0  0  0  0  0  0  0  0
  -13.3496    2.1294   27.9900 C   0  0  0  0  0  0  0  0  0  0  0  0
  -13.7450    2.1668   29.3220 C   0  0  0  0  0  0  0  0  0  0  0  0
  -12.9667    1.6334   30.2799 C   0  0  0  0  0  0  0  0  0  0  0  0
  -11.7922    1.1087   29.9575 C   0  0  0  0  0  0  0  0  0  0  0  0
  -15.1311    2.7987   29.6060 C   0  0  2  0  0  0  0  0  0  0  0  0
  -15.5080    3.2504   30.5768 C   0  0  0  0  0  0  0  0  0  0  0  0
  -15.6481    4.0682   31.1852 C   0  0  0  0  0  0  0  0  0  0  0  0
  -15.7025    5.0402   32.1963 C   0  0  0  0  0  0  0  0  0  0  0  0
  -16.0149    2.6215   28.6354 F   0  0  0  0  0  0  0  0  0  0  0  0
  -15.9120    5.7931   32.9881 N   0  0  0  0  0  0  0  0  0  0  0  0
  4  5  1  0
  3  8  1  0
  9 10  1  0
  5 12  2  0
  5 16  1  0
 10 17  1  0
 20 23  1  0
 23 24  1  0
 24 25  2  3
 25 26  1  0
 23 27  1  1
 26 28  3  0
  1  2  2  0
  2  3  1  0
  3  6  2  0
  6  7  1  0
  7  4  2  0
  4  1  1  0
 17 18  2  0
 18 19  1  0
 19 20  2  0
 20 21  1  0
 21 22  2  0
 22 17  1  0
  8  9  1  0
  9 11  2  0
 11 13  1  0
 13 14  2  0
 14 15  1  0
 15  8  2  0
M  END
$$$$
