No_3263-complexes_sdf/6BKW-FPZ/2024-09-17-14-21-01/
     RDKit          3D

 15 16  0  0  0  0  0  0  0  0999 V2000
   -7.9040    3.9820   27.1177 C   0  0  0  0  0  0  0  0  0  0  0  0
   -9.0711    4.3164   27.0630 C   0  0  0  0  0  0  0  0  0  0  0  0
   -9.5294    5.4517   27.7215 C   0  0  0  0  0  0  0  0  0  0  0  0
   -7.4336    2.7132   26.5681 C   0  0  0  0  0  0  0  0  0  0  0  0
   -8.3353    1.8569   26.0442 C   0  0  0  0  0  0  0  0  0  0  0  0
   -9.6477    2.2853   25.9146 C   0  0  0  0  0  0  0  0  0  0  0  0
  -10.0346    3.4497   26.4483 C   0  0  0  0  0  0  0  0  0  0  0  0
   -7.7845    0.3495   25.5013 Cl  0  0  0  0  0  0  0  0  0  0  0  0
   -6.9258    4.7374   27.8216 N   0  0  0  0  0  0  0  0  0  0  0  0
   -7.2751    5.9224   28.3696 C   0  0  0  0  0  0  0  0  0  0  0  0
   -8.5692    6.3395   28.2810 C   0  0  0  0  0  0  0  0  0  0  0  0
  -11.4229    3.8755   26.1601 C   0  0  1  0  0  0  0  0  0  0  0  0
  -12.1275    2.9384   25.8733 Cl  0  0  0  0  0  0  0  0  0  0  0  0
  -11.7466    4.4953   27.5551 C   0  0  0  0  0  0  0  0  0  0  0  0
  -10.8758    5.5988   28.1069 C   0  0  0  0  0  0  0  0  0  0  0  0
  5  8  1  0
  7 12  1  0
 12 13  1  1
 12 14  1  0
 14 15  2  0
  2  7  1  0
  7  6  2  0
  6  5  1  0
  5  4  2  0
  4  1  1  0
  1  2  1  0
  2  3  2  0
  3 11  1  0
 11 10  2  0
 10  9  1  0
  9  1  2  0
M  END
$$$$
