No_3326-complexes_sdf/6BKW-FPZ/2024-09-17-14-21-01/
     RDKit          3D

 18 20  0  0  0  0  0  0  0  0999 V2000
   -7.9040    3.9820   27.1177 C   0  0  0  0  0  0  0  0  0  0  0  0
   -8.2057    2.8231   26.8733 C   0  0  0  0  0  0  0  0  0  0  0  0
   -7.0130    4.3706   28.1140 C   0  0  0  0  0  0  0  0  0  0  0  0
   -7.3740    1.7588   27.2586 C   0  0  0  0  0  0  0  0  0  0  0  0
   -6.8741    5.7769   28.4526 C   0  0  0  0  0  0  0  0  0  0  0  0
   -7.7113    0.3987   27.0710 C   0  0  0  0  0  0  0  0  0  0  0  0
   -8.6226    5.0991   26.5359 C   0  0  0  0  0  0  0  0  0  0  0  0
   -8.5510    6.4219   26.8743 C   0  0  0  0  0  0  0  0  0  0  0  0
   -7.6076    6.7475   27.8535 C   0  0  0  0  0  0  0  0  0  0  0  0
   -9.2328    2.3794   26.0410 C   0  0  0  0  0  0  0  0  0  0  0  0
   -9.5571    1.1203   25.6509 C   0  0  0  0  0  0  0  0  0  0  0  0
   -8.7448    0.1268   26.2354 C   0  0  0  0  0  0  0  0  0  0  0  0
   -9.0615   -1.2178   25.9708 N   0  0  0  0  0  0  0  0  0  0  0  0
   -9.2837   -1.8126   25.1217 C   0  0  0  0  0  0  0  0  0  0  0  0
   -9.6309   -3.1693   25.0633 C   0  0  0  0  0  0  0  0  0  0  0  0
   -9.1139   -2.0259   27.2759 C   0  0  0  0  0  0  0  0  0  0  0  0
   -9.4481   -3.2526   27.3587 C   0  0  0  0  0  0  0  0  0  0  0  0
   -9.7031   -3.8868   26.1844 C   0  0  0  0  0  0  0  0  0  0  0  0
  1  2  1  0
 12 13  1  0
 13 14  1  0
 13 16  1  0
 15 18  1  0
 17 18  1  0
 14 15  1  0
 17 16  1  0
  1  3  2  0
  3  5  1  0
  5  9  2  0
  9  8  1  0
  8  7  2  0
  7  1  1  0
  2  4  2  0
  4  6  1  0
  6 12  2  0
 12 11  1  0
 11 10  2  0
 10  2  1  0
M  END
$$$$
