No_3985-complexes_sdf/6BKW-FPZ/2024-09-17-14-21-01/
     RDKit          3D

 29 32  0  0  0  0  0  0  0  0999 V2000
   -7.2496    3.8871   27.4508 C   0  0  0  0  0  0  0  0  0  0  0  0
   -7.6161    2.7143   27.1523 C   0  0  0  0  0  0  0  0  0  0  0  0
   -7.1619    1.8631   27.5232 C   0  0  0  0  0  0  0  0  0  0  0  0
   -8.0384    5.0866   27.3232 C   0  0  0  0  0  0  0  0  0  0  0  0
   -9.1223    5.1097   26.4856 C   0  0  0  0  0  0  0  0  0  0  0  0
   -8.8783    2.5973   26.4116 C   0  0  0  0  0  0  0  0  0  0  0  0
   -9.5900    3.8078   26.0949 C   0  0  0  0  0  0  0  0  0  0  0  0
   -5.7143    1.8525   28.0345 C   0  0  0  0  0  0  0  0  0  0  0  0
   -5.0695    0.5594   28.3659 C   0  0  0  0  0  0  0  0  0  0  0  0
   -5.7444   -0.5840   28.2823 C   0  0  0  0  0  0  0  0  0  0  0  0
   -7.4002    0.3696   27.5161 C   0  0  0  0  0  0  0  0  0  0  0  0
   -6.9396   -0.6680   27.8857 C   0  0  0  0  0  0  0  0  0  0  0  0
   -7.4910    6.4294   27.7953 C   0  0  0  0  0  0  0  0  0  0  0  0
   -3.6399    0.7683   28.9246 C   0  0  0  0  0  0  0  0  0  0  0  0
   -2.7259    0.4267   28.2013 N   0  0  0  0  0  0  0  0  0  0  0  0
  -10.7721    3.7297   25.2040 C   0  0  0  0  0  0  0  0  0  0  0  0
  -11.9676    3.5065   25.7601 C   0  0  0  0  0  0  0  0  0  0  0  0
  -12.1645    3.7164   27.0544 C   0  0  0  0  0  0  0  0  0  0  0  0
  -13.4806    3.6430   27.7008 C   0  0  0  0  0  0  0  0  0  0  0  0
  -13.5876    3.8044   29.1080 C   0  0  0  0  0  0  0  0  0  0  0  0
  -10.5668    3.8688   23.8082 C   0  0  0  0  0  0  0  0  0  0  0  0
  -11.5948    3.8608   22.9105 C   0  0  0  0  0  0  0  0  0  0  0  0
  -12.9169    3.7293   23.5084 C   0  0  0  0  0  0  0  0  0  0  0  0
  -13.0823    3.7052   24.8713 C   0  0  0  0  0  0  0  0  0  0  0  0
  -14.7918    4.0817   29.6883 C   0  0  0  0  0  0  0  0  0  0  0  0
  -14.8459    4.1540   31.1140 C   0  0  0  0  0  0  0  0  0  0  0  0
  -13.9800    3.7393   31.8256 C   0  0  0  0  0  0  0  0  0  0  0  0
  -12.6909    3.3031   31.3000 C   0  0  0  0  0  0  0  0  0  0  0  0
  -12.5096    3.2916   29.9307 C   0  0  0  0  0  0  0  0  0  0  0  0
  2  3  1  0
  4 13  1  0
  9 14  1  0
 14 15  1  0
  7 16  1  0
 17 18  1  0
 18 19  2  3
 19 20  1  0
  3  8  2  0
  8  9  1  0
  9 10  2  0
 10 12  1  0
 12 11  2  0
 11  3  1  0
 16 17  2  0
 17 24  1  0
 24 23  2  0
 23 22  1  0
 22 21  2  0
 21 16  1  0
 20 25  2  0
 25 26  1  0
 26 27  2  0
 27 28  1  0
 28 29  2  0
 29 20  1  0
  1  2  2  0
  2  6  1  0
  6  7  2  0
  7  5  1  0
  5  4  2  0
  4  1  1  0
M  END
$$$$
