No_3239-complexes_sdf/6BKW-FPZ/2024-09-17-14-21-01/
     RDKit          3D

 28 31  0  0  0  0  0  0  0  0999 V2000
   -7.9040    3.9820   27.1177 C   0  0  0  0  0  0  0  0  0  0  0  0
   -8.2057    2.8231   26.8733 C   0  0  0  0  0  0  0  0  0  0  0  0
   -8.7695    5.0740   26.7916 C   0  0  0  0  0  0  0  0  0  0  0  0
   -9.9618    4.7598   26.1630 C   0  0  0  0  0  0  0  0  0  0  0  0
   -9.4200    2.4524   26.2849 C   0  0  0  0  0  0  0  0  0  0  0  0
  -10.2590    3.4815   25.9250 C   0  0  0  0  0  0  0  0  0  0  0  0
   -8.3837    6.4702   27.0872 C   0  0  0  0  0  0  0  0  0  0  0  0
   -7.4020    6.7193   26.8450 F   0  0  0  0  0  0  0  0  0  0  0  0
   -9.4192    7.2115   27.4047 F   0  0  0  0  0  0  0  0  0  0  0  0
   -7.2690    1.6826   27.2986 C   0  0  0  0  0  0  0  0  0  0  0  0
   -5.9779    1.9638   27.7948 C   0  0  0  0  0  0  0  0  0  0  0  0
   -5.1071    0.9044   28.1838 C   0  0  0  0  0  0  0  0  0  0  0  0
   -5.5033   -0.3931   28.0841 C   0  0  0  0  0  0  0  0  0  0  0  0
   -7.6027    0.3252   27.2149 C   0  0  0  0  0  0  0  0  0  0  0  0
   -6.8024   -0.6529   27.6488 C   0  0  0  0  0  0  0  0  0  0  0  0
   -4.6098   -1.4474   28.5868 C   0  0  2  0  0  0  0  0  0  0  0  0
   -4.8038   -2.1440   29.5184 C   0  0  0  0  0  0  0  0  0  0  0  0
   -5.7395   -1.8573   30.4792 C   0  0  0  0  0  0  0  0  0  0  0  0
   -5.8924   -2.5976   31.7639 C   0  0  0  0  0  0  0  0  0  0  0  0
   -5.1427   -3.6539   31.8927 C   0  0  0  0  0  0  0  0  0  0  0  0
   -4.2120   -3.9881   30.9825 C   0  0  0  0  0  0  0  0  0  0  0  0
   -3.9602   -3.2771   29.9243 C   0  0  0  0  0  0  0  0  0  0  0  0
   -3.2828   -0.7361   28.5245 C   0  0  0  0  0  0  0  0  0  0  0  0
   -4.5974   -2.4658   27.3138 C   0  0  2  0  0  0  0  0  0  0  0  0
   -2.5678   -0.5373   27.3422 C   0  0  0  0  0  0  0  0  0  0  0  0
   -3.9322   -2.0614   26.1431 C   0  0  0  0  0  0  0  0  0  0  0  0
   -2.7054   -1.3204   26.2544 C   0  0  0  0  0  0  0  0  0  0  0  0
   -5.7778   -3.2951   27.2435 C   0  0  0  0  0  0  0  0  0  0  0  0
  3  7  1  0
  7  8  1  0
  7  9  1  0
  2 10  1  0
 16 13  1  6
 16 17  1  0
 16 23  1  0
 16 24  1  0
 23 25  1  0
 25 27  1  0
 26 27  1  0
 24 28  1  6
 26 24  1  0
 17 18  2  0
 18 19  1  0
 19 20  2  0
 20 21  1  0
 21 22  2  0
 22 17  1  0
 10 11  2  0
 11 12  1  0
 12 13  2  0
 13 15  1  0
 15 14  2  0
 14 10  1  0
  1  2  2  0
  2  5  1  0
  5  6  2  0
  6  4  1  0
  4  3  2  0
  3  1  1  0
M  END
$$$$
