No_3217-complexes_sdf/6BKW-FPZ/2024-09-17-14-21-01/
     RDKit          3D

 19 21  0  0  0  0  0  0  0  0999 V2000
   -7.2496    3.8871   27.4508 C   0  0  0  0  0  0  0  0  0  0  0  0
   -7.6161    2.7143   27.1523 C   0  0  0  0  0  0  0  0  0  0  0  0
   -8.6212    2.2239   26.4073 C   0  0  0  0  0  0  0  0  0  0  0  0
   -8.2540    4.9237   27.1711 C   0  0  0  0  0  0  0  0  0  0  0  0
   -9.3729    4.5806   26.4432 C   0  0  0  0  0  0  0  0  0  0  0  0
   -9.5830    3.2969   26.1026 C   0  0  0  0  0  0  0  0  0  0  0  0
   -7.9479    6.2272   27.5121 N   0  0  0  0  0  0  0  0  0  0  0  0
   -8.8625    0.8952   26.0570 C   0  0  1  0  0  0  0  0  0  0  0  0
   -9.2344    0.5350   25.0780 N   0  0  0  0  0  0  0  0  0  0  0  0
  -10.0412    1.0370   24.2998 C   0  0  0  0  0  0  0  0  0  0  0  0
  -10.2169    0.6131   23.0607 C   0  0  0  0  0  0  0  0  0  0  0  0
   -8.6191   -0.6906   24.3695 C   0  0  0  0  0  0  0  0  0  0  0  0
   -7.6930   -1.4369   25.1347 N   0  0  0  0  0  0  0  0  0  0  0  0
   -9.0764   -0.8248   23.0477 C   0  0  0  0  0  0  0  0  0  0  0  0
   -7.6478   -1.6438   26.2868 C   0  0  0  0  0  0  0  0  0  0  0  0
   -8.3528   -0.0192   27.2864 C   0  0  0  0  0  0  0  0  0  0  0  0
   -9.0741   -1.2827   27.0506 C   0  0  1  0  0  0  0  0  0  0  0  0
  -10.2051   -1.3309   26.3774 C   0  0  0  0  0  0  0  0  0  0  0  0
  -11.2267   -1.9152   27.3632 C   0  0  0  0  0  0  0  0  0  0  0  0
  4  7  1  0
  8  3  1  6
  8  9  1  0
  9 10  1  0
 10 11  2  0
  9 12  1  0
 12 13  1  0
 11 14  1  0
 12 14  1  0
 13 15  1  0
  8 16  1  0
 15 17  1  0
 16 17  1  0
 17 18  1  6
 18 19  1  0
  1  2  2  0
  2  3  1  0
  3  6  2  0
  6  5  1  0
  5  4  2  0
  4  1  1  0
M  END
$$$$
