No_3875-complexes_sdf/6BKW-FPZ/2024-09-17-14-21-01/
     RDKit          3D

 20 22  0  0  0  0  0  0  0  0999 V2000
   -7.9040    3.9820   27.1177 C   0  0  0  0  0  0  0  0  0  0  0  0
   -8.2057    2.8231   26.8733 C   0  0  0  0  0  0  0  0  0  0  0  0
   -7.0130    4.3706   28.1140 C   0  0  0  0  0  0  0  0  0  0  0  0
   -7.4093    1.7370   27.3857 C   0  0  0  0  0  0  0  0  0  0  0  0
   -6.1943    2.1490   28.0403 C   0  0  0  0  0  0  0  0  0  0  0  0
   -5.2077    1.1775   28.4320 C   0  0  0  0  0  0  0  0  0  0  0  0
   -5.9705    3.5268   28.3803 C   0  0  0  0  0  0  0  0  0  0  0  0
   -5.5039   -0.1875   28.5196 C   0  0  0  0  0  0  0  0  0  0  0  0
   -6.7688   -0.5267   27.9054 C   0  0  0  0  0  0  0  0  0  0  0  0
   -7.6463    0.3765   27.3110 C   0  0  0  0  0  0  0  0  0  0  0  0
   -8.9279    5.0826   26.6241 C   0  0  0  0  0  0  0  0  0  0  0  0
   -9.0121    6.2638   27.2097 N   0  0  0  0  0  0  0  0  0  0  0  0
   -9.7206    4.7658   25.6765 O   0  0  0  0  0  0  0  0  0  0  0  0
   -4.5662   -1.1502   28.9817 C   0  0  0  0  0  0  0  0  0  0  0  0
   -4.2405   -1.3160   30.0155 C   0  0  0  0  0  0  0  0  0  0  0  0
   -3.2257   -2.2860   30.5476 C   0  0  0  0  0  0  0  0  0  0  0  0
   -2.8582   -2.4024   31.8752 C   0  0  0  0  0  0  0  0  0  0  0  0
   -3.3492   -1.4967   32.8651 C   0  0  0  0  0  0  0  0  0  0  0  0
   -4.2252   -0.5005   32.4639 C   0  0  0  0  0  0  0  0  0  0  0  0
   -4.6141   -0.3681   31.1982 C   0  0  0  0  0  0  0  0  0  0  0  0
  1 11  1  0
 11 12  1  0
 11 13  2  0
  8 14  1  0
 14 15  1  0
 15 16  2  0
 16 17  1  0
 17 18  2  0
 18 19  1  0
 19 20  2  0
 20 15  1  0
  1  2  2  0
  2  4  1  0
  5  7  1  0
  7  3  2  0
  3  1  1  0
  4  5  2  0
  5  6  1  0
  6  8  2  0
  8  9  1  0
  9 10  2  0
 10  4  1  0
M  END
$$$$
