No_3318-complexes_sdf/6BKW-FPZ/2024-09-17-14-21-01/
     RDKit          3D

 20 22  0  0  0  0  0  0  0  0999 V2000
   -7.7129    4.2099   27.0854 C   0  0  0  0  0  0  0  0  0  0  0  0
   -8.2112    3.0637   26.9225 C   0  0  0  0  0  0  0  0  0  0  0  0
   -7.0021    4.5281   28.2396 C   0  0  0  0  0  0  0  0  0  0  0  0
   -7.5497    1.9016   27.4549 C   0  0  0  0  0  0  0  0  0  0  0  0
   -8.0700    0.6173   27.2932 C   0  0  0  0  0  0  0  0  0  0  0  0
   -9.3589    0.5577   26.6828 C   0  0  0  0  0  0  0  0  0  0  0  0
  -10.0040    1.6252   26.1809 C   0  0  0  0  0  0  0  0  0  0  0  0
   -9.4269    2.8857   26.2743 C   0  0  0  0  0  0  0  0  0  0  0  0
   -8.4271    5.3530   26.4842 C   0  0  0  0  0  0  0  0  0  0  0  0
   -8.1382    6.7251   26.9088 C   0  0  0  0  0  0  0  0  0  0  0  0
   -6.8242    5.9075   28.7180 C   0  0  0  0  0  0  0  0  0  0  0  0
   -8.6826    7.8806   26.2509 C   0  0  0  0  0  0  0  0  0  0  0  0
   -7.3212    6.8655   28.0705 C   0  0  0  0  0  0  0  0  0  0  0  0
  -11.3004    1.4378   25.4807 C   0  0  0  0  0  0  0  0  0  0  0  0
  -11.4095    1.9649   24.3544 C   0  0  0  0  0  0  0  0  0  0  0  0
  -10.3282    2.6569   23.6869 C   0  0  0  0  0  0  0  0  0  0  0  0
  -10.5168    3.2128   22.3763 C   0  0  0  0  0  0  0  0  0  0  0  0
  -11.6627    3.0794   21.7171 C   0  0  0  0  0  0  0  0  0  0  0  0
  -12.7441    2.4060   22.3228 C   0  0  0  0  0  0  0  0  0  0  0  0
  -12.5906    1.9126   23.5483 C   0  0  0  0  0  0  0  0  0  0  0  0
  1  2  1  0
 10 12  1  0
  7 14  1  0
 14 15  1  0
 15 16  2  0
 16 17  1  0
 17 18  2  0
 18 19  1  0
 19 20  2  0
 20 15  1  0
  1  3  2  0
  3 11  1  0
 11 13  2  0
 13 10  1  0
 10  9  2  0
  9  1  1  0
  2  4  2  0
  4  5  1  0
  5  6  2  0
  6  7  1  0
  7  8  2  0
  8  2  1  0
M  END
$$$$
