No_388-complexes_sdf/6BKW-FPZ/2024-09-17-14-21-01/
     RDKit          3D

 20 22  0  0  0  0  0  0  0  0999 V2000
   -7.7129    4.2099   27.0854 C   0  0  0  0  0  0  0  0  0  0  0  0
   -8.9134    4.4736   27.0998 C   0  0  0  0  0  0  0  0  0  0  0  0
   -9.8363    3.8127   27.2418 C   0  0  0  0  0  0  0  0  0  0  0  0
   -7.2995    2.8520   27.3808 C   0  0  0  0  0  0  0  0  0  0  0  0
   -8.3226    1.9328   27.4680 C   0  0  0  0  0  0  0  0  0  0  0  0
   -9.5955    2.3639   27.4416 C   0  0  0  0  0  0  0  0  0  0  0  0
   -9.2131    6.2759   26.9097 Cl  0  0  0  0  0  0  0  0  0  0  0  0
   -6.0396    2.4203   27.4615 N   0  0  0  0  0  0  0  0  0  0  0  0
   -5.7458    1.1193   27.5893 C   0  0  0  0  0  0  0  0  0  0  0  0
   -4.3535    0.8109   27.9536 C   0  0  0  0  0  0  0  0  0  0  0  0
   -3.9517   -0.5262   28.1717 C   0  0  0  0  0  0  0  0  0  0  0  0
   -4.9491   -1.5041   28.0329 C   0  0  0  0  0  0  0  0  0  0  0  0
   -6.2195   -1.1911   27.6632 C   0  0  0  0  0  0  0  0  0  0  0  0
   -6.5963    0.1334   27.5341 C   0  0  0  0  0  0  0  0  0  0  0  0
   -7.9874    0.5529   27.4203 C   0  0  0  0  0  0  0  0  0  0  0  0
   -8.9132   -0.3342   27.4234 O   0  0  0  0  0  0  0  0  0  0  0  0
   -2.5551   -0.8233   28.5216 C   0  0  0  0  0  0  0  0  0  0  0  0
   -2.2475   -0.4854   29.6984 F   0  0  0  0  0  0  0  0  0  0  0  0
   -1.7115   -0.0945   27.6883 F   0  0  0  0  0  0  0  0  0  0  0  0
   -2.2697   -2.0734   28.3822 F   0  0  0  0  0  0  0  0  0  0  0  0
  2  7  1  0
  4  8  1  0
  5 15  1  0
 14 15  1  0
 15 16  2  0
 11 17  1  0
 17 18  1  0
 17 19  1  0
 17 20  1  0
  8  9  1  0
  9 10  2  0
 10 11  1  0
 11 12  2  0
 12 13  1  0
 13 14  2  0
 14  9  1  0
  1  2  2  0
  2  3  1  0
  3  6  2  0
  6  5  1  0
  5  4  2  0
  4  1  1  0
M  END
$$$$
