No_3005-complexes_sdf/6BKW-FPZ/2024-09-17-14-21-01/
     RDKit          3D

 25 28  0  0  0  0  0  0  0  0999 V2000
   -7.2496    3.8871   27.4508 C   0  0  0  0  0  0  0  0  0  0  0  0
   -7.6161    2.7143   27.1523 C   0  0  0  0  0  0  0  0  0  0  0  0
   -8.6212    2.2239   26.4073 C   0  0  0  0  0  0  0  0  0  0  0  0
   -8.2540    4.9237   27.1711 C   0  0  0  0  0  0  0  0  0  0  0  0
   -9.3729    4.5806   26.4433 C   0  0  0  0  0  0  0  0  0  0  0  0
   -9.5830    3.2969   26.1026 C   0  0  0  0  0  0  0  0  0  0  0  0
   -7.9303    6.3207   27.5389 C   0  0  0  0  0  0  0  0  0  0  0  0
   -8.0818    7.2633   26.5319 Cl  0  0  0  0  0  0  0  0  0  0  0  0
   -8.8798    0.8839   26.0511 C   0  0  0  0  0  0  0  0  0  0  0  0
   -9.2584    0.5024   25.0656 N   0  0  0  0  0  0  0  0  0  0  0  0
   -9.2136   -0.6204   24.4788 C   0  0  0  0  0  0  0  0  0  0  0  0
   -8.5728   -0.0995   27.1093 C   0  0  0  0  0  0  0  0  0  0  0  0
   -9.8559   -0.8792   23.2891 C   0  0  1  0  0  0  0  0  0  0  0  0
   -8.5694   -1.4347   26.8152 C   0  0  0  0  0  0  0  0  0  0  0  0
   -9.0362   -1.6875   25.4645 C   0  0  0  0  0  0  0  0  0  0  0  0
   -8.9538   -1.0777   22.1761 C   0  0  0  0  0  0  0  0  0  0  0  0
   -7.5842   -1.0331   22.3970 C   0  0  0  0  0  0  0  0  0  0  0  0
   -6.6855   -1.9054   21.5894 C   0  0  0  0  0  0  0  0  0  0  0  0
   -7.1806   -2.3569   20.3398 C   0  0  0  0  0  0  0  0  0  0  0  0
   -8.5703   -2.2625   20.0772 C   0  0  0  0  0  0  0  0  0  0  0  0
   -9.4243   -1.7122   20.9766 C   0  0  0  0  0  0  0  0  0  0  0  0
  -11.0634   -1.5972   23.1582 C   0  0  0  0  0  0  0  0  0  0  0  0
  -11.9637   -0.9920   22.3183 C   0  0  0  0  0  0  0  0  0  0  0  0
  -11.8311   -1.3548   20.8864 C   0  0  0  0  0  0  0  0  0  0  0  0
  -10.7316   -1.6430   20.3783 C   0  0  0  0  0  0  0  0  0  0  0  0
  4  7  1  0
  7  8  1  0
  3  9  1  0
 13 16  1  0
 13 22  1  0
 22 23  2  0
 23 24  1  0
 21 25  1  0
 24 25  2  0
 13 11  1  1
  9 10  2  0
 10 11  1  0
 11 15  2  0
 15 14  1  0
 14 12  2  0
 12  9  1  0
  1  2  2  0
  2  3  1  0
  3  6  2  0
  6  5  1  0
  5  4  2  0
  4  1  1  0
 16 17  2  0
 17 18  1  0
 18 19  2  0
 19 20  1  0
 20 21  2  0
 21 16  1  0
M  END
$$$$
