No_3022-complexes_sdf/6BKW-FPZ/2024-09-17-14-21-01/
     RDKit          3D

 40 44  0  0  0  0  0  0  0  0999 V2000
   -7.7129    4.2099   27.0854 C   0  0  0  0  0  0  0  0  0  0  0  0
   -8.2112    3.0637   26.9225 C   0  0  0  0  0  0  0  0  0  0  0  0
   -8.5108    5.3904   26.9436 C   0  0  0  0  0  0  0  0  0  0  0  0
   -7.9752    6.6981   27.2112 C   0  0  0  0  0  0  0  0  0  0  0  0
   -9.5213    2.8208   26.4688 C   0  0  0  0  0  0  0  0  0  0  0  0
  -10.2979    3.9327   26.2378 C   0  0  0  0  0  0  0  0  0  0  0  0
   -9.7894    5.2123   26.4395 C   0  0  0  0  0  0  0  0  0  0  0  0
   -7.3451    1.8185   27.1796 C   0  0  0  0  0  0  0  0  0  0  0  0
   -7.7232    0.5262   26.9339 C   0  0  0  0  0  0  0  0  0  0  0  0
   -6.8979   -0.5152   27.3134 C   0  0  0  0  0  0  0  0  0  0  0  0
   -5.6407   -0.2250   27.8929 C   0  0  0  0  0  0  0  0  0  0  0  0
   -5.2530    1.0888   28.1418 C   0  0  0  0  0  0  0  0  0  0  0  0
   -6.0420    2.0747   27.8523 C   0  0  0  0  0  0  0  0  0  0  0  0
   -7.0087    6.7267   28.0276 F   0  0  0  0  0  0  0  0  0  0  0  0
   -7.6244    7.4673   26.1179 F   0  0  0  0  0  0  0  0  0  0  0  0
   -8.9729    7.4503   27.7142 F   0  0  0  0  0  0  0  0  0  0  0  0
   -4.7592   -1.3628   28.3228 C   0  0  0  0  0  0  0  0  0  0  0  0
   -4.9507   -2.1422   29.0804 N   0  0  0  0  0  0  0  0  0  0  0  0
   -5.7790   -2.1329   29.9883 C   0  0  0  0  0  0  0  0  0  0  0  0
   -5.9595   -3.2051   30.9838 C   0  0  0  0  0  0  0  0  0  0  0  0
   -3.5207   -1.3093   27.4511 C   0  0  0  0  0  0  0  0  0  0  0  0
   -6.1868   -2.9226   32.2636 C   0  0  0  0  0  0  0  0  0  0  0  0
   -6.7082   -1.6319   32.7092 C   0  0  0  0  0  0  0  0  0  0  0  0
   -6.2278   -0.5550   31.9680 C   0  0  0  0  0  0  0  0  0  0  0  0
   -5.7056   -0.7940   30.6464 C   0  0  0  0  0  0  0  0  0  0  0  0
   -4.8411   -3.5772   28.4983 C   0  0  0  0  0  0  0  0  0  0  0  0
   -3.6652   -3.6666   27.8164 C   0  0  0  0  0  0  0  0  0  0  0  0
   -3.2406   -2.6460   26.8543 C   0  0  0  0  0  0  0  0  0  0  0  0
  -11.6359    3.8464   25.6563 C   0  0  2  0  0  0  0  0  0  0  0  0
  -12.7174    3.5153   26.4981 C   0  0  0  0  0  0  0  0  0  0  0  0
  -12.4810    3.3833   27.9143 C   0  0  0  0  0  0  0  0  0  0  0  0
  -13.6333    3.1112   28.7943 C   0  0  0  0  0  0  0  0  0  0  0  0
  -14.8608    2.9981   28.2110 C   0  0  0  0  0  0  0  0  0  0  0  0
  -15.0826    3.1682   26.8980 C   0  0  0  0  0  0  0  0  0  0  0  0
  -14.0403    3.5079   26.0207 C   0  0  0  0  0  0  0  0  0  0  0  0
  -11.8283    3.9981   24.2718 C   0  0  0  0  0  0  0  0  0  0  0  0
  -11.4970    3.2803   23.4311 C   0  0  0  0  0  0  0  0  0  0  0  0
  -11.5218    3.6362   22.0582 C   0  0  0  0  0  0  0  0  0  0  0  0
  -10.8370    2.9313   21.0689 C   0  0  0  0  0  0  0  0  0  0  0  0
  -10.1266    1.7516   21.4357 C   0  0  0  0  0  0  0  0  0  0  0  0
  3  4  1  0
  2  8  1  0
  4 14  1  0
  4 15  1  0
  4 16  1  0
 11 17  1  0
 17 18  1  0
 18 19  1  0
 17 21  1  0
 18 26  1  0
 21 28  1  0
 27 28  1  0
  6 29  1  0
 29 36  1  6
 36 37  3  0
 37 38  1  0
 38 39  2  3
 39 40  1  0
 29 30  1  0
 27 26  1  0
 19 20  2  0
 20 22  1  0
 22 23  2  0
 23 24  1  0
 24 25  2  0
 25 19  1  0
  1  2  2  0
  2  5  1  0
  5  6  2  0
  6  7  1  0
  7  3  2  0
  3  1  1  0
 30 31  2  0
 31 32  1  0
 32 33  2  0
 33 34  1  0
 34 35  2  0
 35 30  1  0
  8  9  2  0
  9 10  1  0
 10 11  2  0
 11 12  1  0
 12 13  2  0
 13  8  1  0
M  END
$$$$
