No_378-complexes_sdf/6BKW-FPZ/2024-09-17-14-21-01/
     RDKit          3D

 13 14  0  0  0  0  0  0  0  0999 V2000
   -7.7129    4.2099   27.0854 C   0  0  0  0  0  0  0  0  0  0  0  0
   -7.7814    5.1722   27.8972 C   0  0  0  0  0  0  0  0  0  0  0  0
   -8.8776    3.8408   26.3416 C   0  0  0  0  0  0  0  0  0  0  0  0
   -9.9844    4.6492   26.4743 C   0  0  0  0  0  0  0  0  0  0  0  0
   -8.7830    6.1594   27.8870 C   0  0  0  0  0  0  0  0  0  0  0  0
   -9.9269    5.8191   27.1183 C   0  0  0  0  0  0  0  0  0  0  0  0
   -8.8761    2.2656   25.3475 Br  0  0  0  0  0  0  0  0  0  0  0  0
  -11.1393    4.3401   25.6247 C   0  0  0  0  0  0  0  0  0  0  0  0
  -11.0719    4.5266   24.2756 C   0  0  0  0  0  0  0  0  0  0  0  0
  -12.0802    4.2200   23.3892 C   0  0  0  0  0  0  0  0  0  0  0  0
  -12.9129    3.7819   23.7572 C   0  0  0  0  0  0  0  0  0  0  0  0
  -12.4038    3.8381   25.7839 C   0  0  0  0  0  0  0  0  0  0  0  0
  -13.3744    3.6346   25.0714 C   0  0  0  0  0  0  0  0  0  0  0  0
  3  7  1  0
  4  8  1  0
  1  2  2  0
  2  5  1  0
  5  6  2  0
  6  4  1  0
  4  3  2  0
  3  1  1  0
  8  9  2  0
  9 10  1  0
 10 11  2  0
 11 13  1  0
 13 12  2  0
 12  8  1  0
M  END
$$$$
