No_3150-complexes_sdf/6BKW-FPZ/2024-09-17-14-21-01/
     RDKit          3D

 19 21  0  0  0  0  0  0  0  0999 V2000
   -7.2496    3.8871   27.4508 C   0  0  0  0  0  0  0  0  0  0  0  0
   -7.9379    4.9063   27.8518 C   0  0  0  0  0  0  0  0  0  0  0  0
   -8.9501    5.3664   27.1340 C   0  0  0  0  0  0  0  0  0  0  0  0
   -7.8297    2.9727   26.4637 C   0  0  0  0  0  0  0  0  0  0  0  0
   -9.6373    4.6098   26.1956 C   0  0  0  0  0  0  0  0  0  0  0  0
   -9.0235    3.4546   25.8531 C   0  0  0  0  0  0  0  0  0  0  0  0
   -9.4824    2.4361   24.8810 C   0  0  0  0  0  0  0  0  0  0  0  0
   -9.3256    1.1993   24.8783 C   0  0  0  0  0  0  0  0  0  0  0  0
   -8.1890    0.7695   25.7905 C   0  0  0  0  0  0  0  0  0  0  0  0
   -7.4861    1.6327   26.5210 C   0  0  0  0  0  0  0  0  0  0  0  0
   -7.3264    5.7992   28.7691 O   0  0  0  0  0  0  0  0  0  0  0  0
   -7.7946   -0.6977   25.7027 C   0  0  2  0  0  0  0  0  0  0  0  0
   -7.4689   -1.2787   26.8727 C   0  0  0  0  0  0  0  0  0  0  0  0
   -7.0568   -2.6358   26.9354 C   0  0  0  0  0  0  0  0  0  0  0  0
   -6.7302   -3.1345   28.2036 C   0  0  0  0  0  0  0  0  0  0  0  0
   -6.8060   -2.4376   29.1600 C   0  0  0  0  0  0  0  0  0  0  0  0
   -7.1436   -1.0720   29.2715 C   0  0  0  0  0  0  0  0  0  0  0  0
   -7.4519   -0.4863   28.0818 C   0  0  0  0  0  0  0  0  0  0  0  0
   -6.6046   -0.7043   24.7312 C   0  0  0  0  0  0  0  0  0  0  0  0
  2 11  1  0
  9 12  1  0
 12 19  1  6
 12 13  1  0
 13 14  2  0
 14 15  1  0
 15 16  2  0
 16 17  1  0
 17 18  2  0
 18 13  1  0
  6  7  2  0
  7  8  1  0
  8  9  2  0
  9 10  1  0
 10  4  2  0
  1  2  2  0
  2  3  1  0
  3  5  2  0
  5  6  1  0
  6  4  1  0
  4  1  1  0
M  END
$$$$
