No_3414-complexes_sdf/6BKW-FPZ/2024-09-17-14-21-01/
     RDKit          3D

 31 35  0  0  0  0  0  0  0  0999 V2000
   -7.7129    4.2099   27.0854 C   0  0  0  0  0  0  0  0  0  0  0  0
   -8.9133    4.4736   27.0998 C   0  0  0  0  0  0  0  0  0  0  0  0
   -9.4643    5.5426   27.7628 C   0  0  0  0  0  0  0  0  0  0  0  0
   -7.2009    2.9448   26.6134 C   0  0  0  0  0  0  0  0  0  0  0  0
   -8.1365    1.9533   26.2981 C   0  0  0  0  0  0  0  0  0  0  0  0
   -9.4501    2.2651   26.2497 C   0  0  0  0  0  0  0  0  0  0  0  0
   -9.8615    3.4703   26.6763 C   0  0  0  0  0  0  0  0  0  0  0  0
   -7.5886    0.6540   25.9006 C   0  0  0  0  0  0  0  0  0  0  0  0
   -6.7458    0.1054   26.6097 O   0  0  0  0  0  0  0  0  0  0  0  0
   -5.9137   -0.7844   26.2421 C   0  0  0  0  0  0  0  0  0  0  0  0
   -8.0392    0.0396   24.7983 C   0  0  0  0  0  0  0  0  0  0  0  0
   -7.2359   -0.9597   24.2085 C   0  0  0  0  0  0  0  0  0  0  0  0
   -6.1820   -1.2026   24.8179 C   0  0  0  0  0  0  0  0  0  0  0  0
   -4.7846   -1.1840   26.9774 C   0  0  0  0  0  0  0  0  0  0  0  0
   -4.9671   -1.8824   28.0169 C   0  0  0  0  0  0  0  0  0  0  0  0
   -5.7953   -2.2291   28.6510 C   0  0  0  0  0  0  0  0  0  0  0  0
   -5.9099   -2.8365   29.9915 C   0  0  0  0  0  0  0  0  0  0  0  0
   -4.7239   -3.0105   30.6470 C   0  0  0  0  0  0  0  0  0  0  0  0
   -3.5553   -2.5355   30.0689 C   0  0  0  0  0  0  0  0  0  0  0  0
   -3.5675   -1.9202   28.8754 C   0  0  0  0  0  0  0  0  0  0  0  0
   -3.4636   -0.9160   26.3390 C   0  0  0  0  0  0  0  0  0  0  0  0
  -11.3009    3.7697   26.6003 C   0  0  0  0  0  0  0  0  0  0  0  0
  -12.0001    3.7497   25.5614 C   0  0  0  0  0  0  0  0  0  0  0  0
  -13.3755    4.0187   25.4982 C   0  0  0  0  0  0  0  0  0  0  0  0
  -14.0017    4.5370   26.7141 C   0  0  0  0  0  0  0  0  0  0  0  0
  -13.1938    4.6945   27.8683 C   0  0  0  0  0  0  0  0  0  0  0  0
  -11.8661    4.3718   27.8701 C   0  0  0  0  0  0  0  0  0  0  0  0
   -2.3720   -1.4489   28.2520 C   0  0  0  0  0  0  0  0  0  0  0  0
   -2.3098   -0.9564   26.9931 C   0  0  0  0  0  0  0  0  0  0  0  0
  -15.2685    4.8826   26.6858 F   0  0  0  0  0  0  0  0  0  0  0  0
   -8.3137    6.6110   27.8380 C   0  0  0  0  0  0  0  0  0  0  0  0
  5  8  1  0
  8  9  1  0
  9 10  1  0
  8 11  1  0
 11 12  2  0
 10 13  2  0
 12 13  1  0
 10 14  1  0
  7 22  1  0
 25 30  1  0
  3 31  1  0
  3  2  1  0
 15 16  2  0
 16 17  1  0
 17 18  2  0
 18 19  1  0
 19 20  2  0
 22 23  2  0
 23 24  1  0
 24 25  2  0
 25 26  1  0
 26 27  2  0
 27 22  1  0
  1  2  2  0
  2  7  1  0
  7  6  2  0
  6  5  1  0
  5  4  2  0
  4  1  1  0
 14 15  1  0
 15 20  1  0
 20 28  1  0
 28 29  2  0
 29 21  1  0
 21 14  2  0
M  END
$$$$
