No_3087-complexes_sdf/6BKW-FPZ/2024-09-17-14-21-01/
     RDKit          3D

 26 29  0  0  0  0  0  0  0  0999 V2000
   -7.7129    4.2099   27.0854 C   0  0  0  0  0  0  0  0  0  0  0  0
   -7.7814    5.1722   27.8972 C   0  0  0  0  0  0  0  0  0  0  0  0
   -8.8776    3.8408   26.3416 C   0  0  0  0  0  0  0  0  0  0  0  0
   -9.9844    4.6492   26.4743 C   0  0  0  0  0  0  0  0  0  0  0  0
   -8.8033    6.1375   27.8728 C   0  0  0  0  0  0  0  0  0  0  0  0
   -9.9554    5.8280   27.1737 C   0  0  0  0  0  0  0  0  0  0  0  0
   -8.8740    2.6184   25.5584 C   0  0  0  0  0  0  0  0  0  0  0  0
   -9.7481    2.4811   24.4970 C   0  0  0  0  0  0  0  0  0  0  0  0
   -9.7537    1.3389   23.7601 C   0  0  0  0  0  0  0  0  0  0  0  0
   -8.7872    0.3087   24.0451 C   0  0  0  0  0  0  0  0  0  0  0  0
   -7.9652    0.4384   25.1261 C   0  0  0  0  0  0  0  0  0  0  0  0
   -7.9663    1.5885   25.9116 C   0  0  0  0  0  0  0  0  0  0  0  0
   -8.7801   -0.9091   23.2103 C   0  0  0  0  0  0  0  0  0  0  0  0
   -7.6534   -1.3664   22.7978 C   0  0  0  0  0  0  0  0  0  0  0  0
   -6.4089   -0.7604   23.3396 C   0  0  0  0  0  0  0  0  0  0  0  0
   -6.5850   -0.1598   24.6939 C   0  0  0  0  0  0  0  0  0  0  0  0
  -10.6943    1.2152   22.6879 C   0  0  0  0  0  0  0  0  0  0  0  0
  -11.9319    0.9209   22.9571 C   0  0  0  0  0  0  0  0  0  0  0  0
  -10.1458    0.6776   21.4230 C   0  0  0  0  0  0  0  0  0  0  0  0
  -12.8597    0.7637   22.0348 C   0  0  0  0  0  0  0  0  0  0  0  0
  -11.0659    0.5997   20.3549 C   0  0  0  0  0  0  0  0  0  0  0  0
  -12.4167    0.4741   20.6467 C   0  0  0  0  0  0  0  0  0  0  0  0
   -7.4650   -2.3453   21.7723 C   0  0  0  0  0  0  0  0  0  0  0  0
   -7.8763   -3.4551   21.9119 O   0  0  0  0  0  0  0  0  0  0  0  0
   -7.1147   -1.8520   20.5648 O   0  0  0  0  0  0  0  0  0  0  0  0
   -6.6660    5.6089   28.6076 O   0  0  0  0  0  0  0  0  0  0  0  0
  3  7  1  0
  9 17  1  0
 14 23  1  0
 23 24  1  0
 23 25  2  0
  2 26  1  0
 17 18  2  0
 18 20  1  0
 20 22  2  0
 22 21  1  0
 21 19  2  0
 19 17  1  0
  1  2  2  0
  2  5  1  0
  5  6  2  0
  6  4  1  0
  4  3  2  0
  3  1  1  0
  7  8  2  0
  8  9  1  0
  9 10  2  0
 11 12  2  0
 12  7  1  0
 10 11  1  0
 11 16  1  0
 16 15  2  0
 15 14  1  0
 14 13  2  0
 13 10  1  0
M  END
$$$$
