No_3783-complexes_sdf/6BKW-FPZ/2024-09-17-14-21-01/
     RDKit          3D

 38 41  0  0  0  0  0  0  0  0999 V2000
   -7.7129    4.2099   27.0854 C   0  0  0  0  0  0  0  0  0  0  0  0
   -7.7814    5.1722   27.8972 C   0  0  0  0  0  0  0  0  0  0  0  0
   -8.8255    3.2789   27.1191 C   0  0  0  0  0  0  0  0  0  0  0  0
   -9.9209    3.4734   27.9101 C   0  0  0  0  0  0  0  0  0  0  0  0
  -10.0316    4.7089   28.6463 C   0  0  0  0  0  0  0  0  0  0  0  0
   -8.9258    5.5669   28.6427 C   0  0  0  0  0  0  0  0  0  0  0  0
   -8.6994    1.9948   26.3493 C   0  0  0  0  0  0  0  0  0  0  0  0
   -7.8915    0.9517   26.7326 C   0  0  0  0  0  0  0  0  0  0  0  0
   -7.7874   -0.2031   26.0852 C   0  0  0  0  0  0  0  0  0  0  0  0
   -9.3042    1.5906   25.1173 C   0  0  0  0  0  0  0  0  0  0  0  0
   -9.1995    0.6341   24.3366 C   0  0  0  0  0  0  0  0  0  0  0  0
   -8.3545   -0.3783   24.8721 C   0  0  0  0  0  0  0  0  0  0  0  0
  -11.0644    2.5762   27.9441 C   0  0  0  0  0  0  0  0  0  0  0  0
  -12.2705    2.8371   27.3323 C   0  0  0  0  0  0  0  0  0  0  0  0
  -13.1870    2.7810   27.9615 C   0  0  0  0  0  0  0  0  0  0  0  0
  -13.3998    1.9082   29.1551 C   0  0  0  0  0  0  0  0  0  0  0  0
  -12.2139    1.2762   29.5225 C   0  0  0  0  0  0  0  0  0  0  0  0
  -11.0459    1.6012   29.0231 C   0  0  0  0  0  0  0  0  0  0  0  0
   -8.2289   -1.6288   24.0688 C   0  0  0  0  0  0  0  0  0  0  0  0
   -7.1360   -2.1829   23.9366 N   0  0  0  0  0  0  0  0  0  0  0  0
   -6.6919   -2.8368   23.0635 C   0  0  0  0  0  0  0  0  0  0  0  0
   -7.1321   -2.8901   22.0631 F   0  0  0  0  0  0  0  0  0  0  0  0
   -5.5821   -3.6140   23.0880 F   0  0  0  0  0  0  0  0  0  0  0  0
  -14.4784    1.9048   29.9745 C   0  0  0  0  0  0  0  0  0  0  0  0
  -14.7781    1.3274   30.7942 O   0  0  0  0  0  0  0  0  0  0  0  0
  -15.2083    3.1100   29.9235 O   0  0  0  0  0  0  0  0  0  0  0  0
  -15.9708    3.5175   30.6383 C   0  0  0  0  0  0  0  0  0  0  0  0
  -15.5016    4.3427   31.6090 C   0  0  0  0  0  0  0  0  0  0  0  0
  -16.2685    5.2974   32.2207 C   0  0  0  0  0  0  0  0  0  0  0  0
  -15.7918    6.1417   33.3226 C   0  0  0  0  0  0  0  0  0  0  0  0
  -14.5449    5.8277   33.8700 C   0  0  0  0  0  0  0  0  0  0  0  0
  -13.7414    4.8040   33.3036 C   0  0  0  0  0  0  0  0  0  0  0  0
  -14.2212    4.0721   32.2187 C   0  0  0  0  0  0  0  0  0  0  0  0
  -14.0037    6.5025   35.0613 C   0  0  0  0  0  0  0  0  0  0  0  0
  -13.0203    5.8895   35.7971 N   0  0  0  0  0  0  0  0  0  0  0  0
  -13.0048    5.2191   36.6031 C   0  0  0  0  0  0  0  0  0  0  0  0
  -11.6786    4.7237   37.1867 C   0  0  0  0  0  0  0  0  0  0  0  0
  -10.7393    4.9234   36.1649 C   0  0  0  0  0  0  0  0  0  0  0  0
  3  7  1  0
  4 13  1  0
 12 19  1  0
 19 20  1  0
 20 21  2  3
 21 22  1  0
 21 23  1  0
 16 24  1  0
 24 25  2  0
 24 26  1  0
 26 27  1  0
 27 28  1  0
 31 34  1  0
 34 35  1  0
 35 36  2  3
 36 37  1  0
 37 38  2  0
 13 14  2  0
 14 15  1  0
 15 16  2  0
 16 17  1  0
 17 18  2  0
 18 13  1  0
 28 29  2  0
 29 30  1  0
 30 31  2  0
 31 32  1  0
 32 33  2  0
 33 28  1  0
  1  2  2  0
  2  6  1  0
  6  5  2  0
  5  4  1  0
  4  3  2  0
  3  1  1  0
  7  8  2  0
  8  9  1  0
  9 12  2  0
 12 11  1  0
 11 10  2  0
 10  7  1  0
M  END
$$$$
