No_3543-complexes_sdf/6BKW-FPZ/2024-09-17-14-21-01/
     RDKit          3D

 27 30  0  0  0  0  0  0  0  0999 V2000
   -7.2496    3.8871   27.4508 C   0  0  0  0  0  0  0  0  0  0  0  0
   -8.5096    4.0291   27.2770 C   0  0  0  0  0  0  0  0  0  0  0  0
   -9.3451    2.8786   26.9046 C   0  0  0  0  0  0  0  0  0  0  0  0
   -6.6065    2.5680   27.5073 C   0  0  0  0  0  0  0  0  0  0  0  0
   -7.4233    1.4858   27.2402 C   0  0  0  0  0  0  0  0  0  0  0  0
   -8.7362    1.6525   26.9989 C   0  0  0  0  0  0  0  0  0  0  0  0
   -9.1023    5.3710   27.2131 C   0  0  1  0  0  0  0  0  0  0  0  0
  -10.3323    5.6359   27.5259 N   0  0  0  0  0  0  0  0  0  0  0  0
   -7.9400    6.8215   26.8196 Br  0  0  0  0  0  0  0  0  0  0  0  0
   -6.7634    0.1899   27.2951 C   0  0  0  0  0  0  0  0  0  0  0  0
   -7.4459   -0.9139   27.5350 C   0  0  0  0  0  0  0  0  0  0  0  0
   -6.8310   -2.1893   27.6995 C   0  0  0  0  0  0  0  0  0  0  0  0
   -5.4527   -2.2234   27.5123 C   0  0  0  0  0  0  0  0  0  0  0  0
   -5.3204    0.0727   27.2514 C   0  0  0  0  0  0  0  0  0  0  0  0
   -4.6887   -1.0794   27.3231 C   0  0  0  0  0  0  0  0  0  0  0  0
   -3.2212   -1.1287   27.1642 C   0  0  0  0  0  0  0  0  0  0  0  0
   -2.4600   -0.6480   28.3278 C   0  0  0  0  0  0  0  0  0  0  0  0
   -1.2312   -1.0088   28.5175 C   0  0  0  0  0  0  0  0  0  0  0  0
   -0.5049   -0.5012   29.6875 C   0  0  0  0  0  0  0  0  0  0  0  0
   -1.3038   -0.3174   30.8326 C   0  0  0  0  0  0  0  0  0  0  0  0
   -2.7274   -0.1985   30.7162 C   0  0  0  0  0  0  0  0  0  0  0  0
   -3.3278   -0.3996   29.4760 C   0  0  0  0  0  0  0  0  0  0  0  0
   -3.6659    0.2368   32.0839 Cl  0  0  0  0  0  0  0  0  0  0  0  0
   -7.6468   -3.3575   27.9018 C   0  0  0  0  0  0  0  0  0  0  0  0
   -8.8739   -3.2362   27.9355 C   0  0  0  0  0  0  0  0  0  0  0  0
   -9.5626   -1.9319   27.8425 C   0  0  0  0  0  0  0  0  0  0  0  0
   -8.8652   -0.8826   27.6925 C   0  0  0  0  0  0  0  0  0  0  0  0
  2  7  1  0
  7  8  1  1
  7  9  1  0
  5 10  1  0
 15 16  1  0
 16 17  1  0
 21 23  1  0
 17 18  2  0
 18 19  1  0
 19 20  2  0
 20 21  1  0
 21 22  2  0
 22 17  1  0
  1  2  2  0
  2  3  1  0
  3  6  2  0
  6  5  1  0
  5  4  2  0
  4  1  1  0
 10 11  2  0
 12 13  2  0
 13 15  1  0
 15 14  2  0
 14 10  1  0
 11 12  1  0
 12 24  1  0
 24 25  2  0
 25 26  1  0
 26 27  2  0
 27 11  1  0
M  END
$$$$
