No_3266-complexes_sdf/6BKW-FPZ/2024-09-17-14-21-01/
     RDKit          3D

 15 16  0  0  0  0  0  0  0  0999 V2000
   -7.9040    3.9820   27.1177 C   0  0  0  0  0  0  0  0  0  0  0  0
   -7.8663    4.8694   27.9238 C   0  0  0  0  0  0  0  0  0  0  0  0
   -9.0491    3.8523   26.2542 C   0  0  0  0  0  0  0  0  0  0  0  0
   -8.7661    5.9491   27.9690 C   0  0  0  0  0  0  0  0  0  0  0  0
   -9.9295    4.8502   26.2323 C   0  0  0  0  0  0  0  0  0  0  0  0
   -9.8077    5.9288   27.0933 C   0  0  0  0  0  0  0  0  0  0  0  0
   -6.8002    2.6256   27.2024 Cl  0  0  0  0  0  0  0  0  0  0  0  0
   -9.1191    2.6984   25.2948 C   0  0  0  0  0  0  0  0  0  0  0  0
  -10.1024    2.8266   24.2781 C   0  0  0  0  0  0  0  0  0  0  0  0
  -10.7342    1.7210   23.8712 C   0  0  0  0  0  0  0  0  0  0  0  0
  -11.7667    1.8422   22.8548 C   0  0  0  0  0  0  0  0  0  0  0  0
  -12.0392    3.1142   22.3419 C   0  0  0  0  0  0  0  0  0  0  0  0
  -11.3762    4.2240   22.8162 C   0  0  0  0  0  0  0  0  0  0  0  0
  -10.4196    4.1521   23.7965 C   0  0  0  0  0  0  0  0  0  0  0  0
   -8.5387    1.6034   25.5084 O   0  0  0  0  0  0  0  0  0  0  0  0
  1  7  1  0
  3  8  1  0
  8  9  1  0
  8 15  2  0
  1  2  2  0
  2  4  1  0
  4  6  2  0
  6  5  1  0
  5  3  2  0
  3  1  1  0
  9 10  2  0
 10 11  1  0
 11 12  2  0
 12 13  1  0
 13 14  2  0
 14  9  1  0
M  END
$$$$
