No_320-complexes_sdf/6BKW-FPZ/2024-09-17-14-21-01/
     RDKit          3D

 27 30  0  0  0  0  0  0  0  0999 V2000
   -7.2496    3.8871   27.4508 C   0  0  0  0  0  0  0  0  0  0  0  0
   -7.9379    4.9063   27.8518 C   0  0  0  0  0  0  0  0  0  0  0  0
   -9.3376    4.8647   27.7795 C   0  0  0  0  0  0  0  0  0  0  0  0
   -7.8544    2.6294   27.0414 C   0  0  0  0  0  0  0  0  0  0  0  0
   -9.2665    2.6175   27.0340 C   0  0  0  0  0  0  0  0  0  0  0  0
   -9.9836    3.7042   27.4150 C   0  0  0  0  0  0  0  0  0  0  0  0
   -9.9053    1.3367   26.6546 C   0  0  1  0  0  0  0  0  0  0  0  0
  -10.5453    0.7121   27.6210 C   0  0  0  0  0  0  0  0  0  0  0  0
  -11.2666    1.2948   28.5253 C   0  0  0  0  0  0  0  0  0  0  0  0
  -10.3514   -0.7370   27.8020 C   0  0  0  0  0  0  0  0  0  0  0  0
   -9.3286   -1.3615   27.2390 C   0  0  0  0  0  0  0  0  0  0  0  0
   -8.6224   -2.1507   27.8922 C   0  0  0  0  0  0  0  0  0  0  0  0
   -9.2012   -2.8813   29.0322 C   0  0  0  0  0  0  0  0  0  0  0  0
  -10.3601   -2.3631   29.5842 C   0  0  0  0  0  0  0  0  0  0  0  0
  -10.8454   -1.2445   29.0933 C   0  0  0  0  0  0  0  0  0  0  0  0
   -7.3592    6.0565   28.1144 F   0  0  0  0  0  0  0  0  0  0  0  0
  -12.5349    0.7925   29.0591 C   0  0  0  0  0  0  0  0  0  0  0  0
  -11.9774   -0.5756   29.7694 C   0  0  0  0  0  0  0  0  0  0  0  0
   -7.1200    1.6482   26.7307 F   0  0  0  0  0  0  0  0  0  0  0  0
  -10.7666    1.4622   25.3488 C   0  0  2  0  0  0  0  0  0  0  0  0
  -10.2862    0.9169   24.2430 C   0  0  0  0  0  0  0  0  0  0  0  0
   -9.0514    0.3744   24.0930 C   0  0  0  0  0  0  0  0  0  0  0  0
   -8.4604   -0.0108   22.8871 C   0  0  0  0  0  0  0  0  0  0  0  0
   -9.2076    0.2682   21.6984 C   0  0  0  0  0  0  0  0  0  0  0  0
  -10.3927    0.9082   21.7582 C   0  0  0  0  0  0  0  0  0  0  0  0
  -10.9336    1.2825   23.0111 C   0  0  0  0  0  0  0  0  0  0  0  0
  -11.1392    2.8002   25.2658 F   0  0  0  0  0  0  0  0  0  0  0  0
  7  5  1  1
  7  8  1  0
  2 16  1  0
  4 19  1  0
  7 20  1  0
 20 27  1  6
 20 21  1  0
 21 22  2  0
 22 23  1  0
 23 24  2  0
 24 25  1  0
 25 26  2  0
 26 21  1  0
  1  2  2  0
  2  3  1  0
  3  6  2  0
  6  5  1  0
  5  4  2  0
  4  1  1  0
 10 11  2  0
 11 12  1  0
 12 13  2  0
 13 14  1  0
 14 15  2  0
  8  9  2  0
  9 17  1  0
 17 18  2  0
 18 15  1  0
 15 10  1  0
 10  8  1  0
M  END
$$$$
