No_3867-complexes_sdf/6BKW-FPZ/2024-09-17-14-21-01/
     RDKit          3D

 16 17  0  0  0  0  0  0  0  0999 V2000
   -7.7129    4.2099   27.0854 C   0  0  0  0  0  0  0  0  0  0  0  0
   -8.9133    4.4736   27.0998 C   0  0  0  0  0  0  0  0  0  0  0  0
   -9.4643    5.5426   27.7628 C   0  0  0  0  0  0  0  0  0  0  0  0
   -7.2009    2.9448   26.6134 C   0  0  0  0  0  0  0  0  0  0  0  0
   -8.1365    1.9533   26.2981 C   0  0  0  0  0  0  0  0  0  0  0  0
   -9.4501    2.2651   26.2497 C   0  0  0  0  0  0  0  0  0  0  0  0
   -9.8825    3.3922   26.9479 C   0  0  0  0  0  0  0  0  0  0  0  0
   -7.5994    0.6830   25.8096 C   0  0  0  0  0  0  0  0  0  0  0  0
   -8.0599   -0.2782   26.2860 N   0  0  0  0  0  0  0  0  0  0  0  0
   -7.9279   -1.1080   26.9100 C   0  0  0  0  0  0  0  0  0  0  0  0
   -8.9399   -2.0756   27.4152 C   0  0  0  0  0  0  0  0  0  0  0  0
  -10.0482   -1.5219   26.8047 C   0  0  1  0  0  0  0  0  0  0  0  0
  -11.3701   -1.8729   27.0261 C   0  0  0  0  0  0  0  0  0  0  0  0
   -9.7279   -0.3656   26.1551 C   0  0  0  0  0  0  0  0  0  0  0  0
  -12.3123   -1.2626   27.2102 C   0  0  0  0  0  0  0  0  0  0  0  0
  -13.7020   -1.7126   27.3536 C   0  0  0  0  0  0  0  0  0  0  0  0
  1  2  1  0
  2  3  2  0
  1  4  1  0
  4  5  1  0
  5  6  1  0
  2  7  1  0
  6  7  1  0
  5  8  1  0
  8  9  1  0
  9 10  1  0
 10 11  2  0
 11 12  1  0
 12 13  1  0
  9 14  1  0
 12 14  1  1
 13 15  2  3
 15 16  1  0
M  END
$$$$
