No_3731-complexes_sdf/6BKW-FPZ/2024-09-17-14-21-01/
     RDKit          3D

 22 24  0  0  0  0  0  0  0  0999 V2000
   -7.9040    3.9820   27.1177 C   0  0  0  0  0  0  0  0  0  0  0  0
   -7.8663    4.8694   27.9238 C   0  0  0  0  0  0  0  0  0  0  0  0
   -9.0491    3.8523   26.2542 C   0  0  0  0  0  0  0  0  0  0  0  0
   -8.7661    5.9491   27.9690 C   0  0  0  0  0  0  0  0  0  0  0  0
   -9.9295    4.8502   26.2323 C   0  0  0  0  0  0  0  0  0  0  0  0
   -9.8077    5.9288   27.0933 C   0  0  0  0  0  0  0  0  0  0  0  0
   -6.8765    2.8741   27.3811 C   0  0  0  0  0  0  0  0  0  0  0  0
   -7.1092    1.6462   26.8918 N   0  0  0  0  0  0  0  0  0  0  0  0
   -6.3229    0.6310   27.2552 C   0  0  0  0  0  0  0  0  0  0  0  0
   -6.6972   -0.6878   27.0541 C   0  0  0  0  0  0  0  0  0  0  0  0
   -5.0082    0.9448   27.8936 C   0  0  0  0  0  0  0  0  0  0  0  0
   -4.1411    0.0050   28.2346 N   0  0  0  0  0  0  0  0  0  0  0  0
   -3.1296    0.2816   28.9834 C   0  0  0  0  0  0  0  0  0  0  0  0
   -7.8747   -0.9176   26.5330 C   0  0  0  0  0  0  0  0  0  0  0  0
   -8.4445   -2.0854   26.3929 C   0  0  0  0  0  0  0  0  0  0  0  0
   -5.9193    3.1830   28.0063 O   0  0  0  0  0  0  0  0  0  0  0  0
   -7.6704   -3.1470   26.9515 C   0  0  0  0  0  0  0  0  0  0  0  0
   -6.4866   -3.0044   27.5220 C   0  0  0  0  0  0  0  0  0  0  0  0
   -5.9501   -1.7394   27.6790 C   0  0  0  0  0  0  0  0  0  0  0  0
   -4.5155   -1.4015   28.1174 C   0  0  0  0  0  0  0  0  0  0  0  0
  -10.8988    4.7952   25.3270 F   0  0  0  0  0  0  0  0  0  0  0  0
   -3.7833   -2.3064   28.4570 O   0  0  0  0  0  0  0  0  0  0  0  0
  1  7  1  0
  7  8  1  0
  8  9  1  0
  9 11  1  0
 11 12  1  0
 12 13  1  0
  7 16  2  0
 12 20  1  0
 19 20  1  0
  5 21  1  0
 20 22  2  0
  9 10  1  0
  1  2  2  0
  2  4  1  0
  4  6  2  0
  6  5  1  0
  5  3  2  0
  3  1  1  0
 10 14  2  0
 14 15  1  0
 15 17  2  0
 17 18  1  0
 18 19  2  0
 19 10  1  0
M  END
$$$$
