No_3923-complexes_sdf/6BKW-FPZ/2024-09-17-14-21-01/
     RDKit          3D

 40 44  0  0  0  0  0  0  0  0999 V2000
   -7.2496    3.8871   27.4508 C   0  0  0  0  0  0  0  0  0  0  0  0
   -8.5096    4.0291   27.2770 C   0  0  0  0  0  0  0  0  0  0  0  0
   -9.2669    5.1645   27.5845 C   0  0  0  0  0  0  0  0  0  0  0  0
   -8.4566    6.3212   27.8001 C   0  0  0  0  0  0  0  0  0  0  0  0
   -6.4921    5.0197   27.7961 C   0  0  0  0  0  0  0  0  0  0  0  0
   -7.1702    6.2351   27.9936 C   0  0  0  0  0  0  0  0  0  0  0  0
   -9.3431    2.7525   27.0047 C   0  0  0  0  0  0  0  0  0  0  0  0
   -9.6075    2.4783   25.8136 C   0  0  0  0  0  0  0  0  0  0  0  0
  -10.2801    1.2423   25.4225 C   0  0  0  0  0  0  0  0  0  0  0  0
  -10.6283    0.3946   26.4451 C   0  0  0  0  0  0  0  0  0  0  0  0
  -10.3322    0.7040   27.7711 C   0  0  0  0  0  0  0  0  0  0  0  0
   -9.6665    1.8904   28.1059 C   0  0  0  0  0  0  0  0  0  0  0  0
  -10.5350    0.9512   24.0187 C   0  0  0  0  0  0  0  0  0  0  0  0
   -9.7373    0.2736   23.3464 C   0  0  0  0  0  0  0  0  0  0  0  0
   -9.9347    0.0362   21.8582 C   0  0  0  0  0  0  0  0  0  0  0  0
  -11.0081    0.6709   21.2661 C   0  0  0  0  0  0  0  0  0  0  0  0
  -11.8080    1.4584   22.0408 C   0  0  0  0  0  0  0  0  0  0  0  0
  -11.5734    1.6950   23.3755 C   0  0  0  0  0  0  0  0  0  0  0  0
   -8.4707   -0.3984   23.8598 C   0  0  0  0  0  0  0  0  0  0  0  0
   -7.6900    0.1642   24.6157 C   0  0  0  0  0  0  0  0  0  0  0  0
   -6.5407   -0.5159   25.2203 C   0  0  0  0  0  0  0  0  0  0  0  0
   -6.2052   -1.7251   24.7076 C   0  0  0  0  0  0  0  0  0  0  0  0
   -8.1849   -1.6950   23.3558 C   0  0  0  0  0  0  0  0  0  0  0  0
   -7.0347   -2.3362   23.7839 C   0  0  0  0  0  0  0  0  0  0  0  0
  -12.8611    2.1366   21.2115 C   0  0  0  0  0  0  0  0  0  0  0  0
  -11.2985   -0.8668   26.1383 C   0  0  0  0  0  0  0  0  0  0  0  0
  -12.5622   -1.0154   25.8915 C   0  0  0  0  0  0  0  0  0  0  0  0
  -10.4768   -2.0631   26.1861 C   0  0  0  0  0  0  0  0  0  0  0  0
  -10.9276   -3.2929   25.7366 C   0  0  0  0  0  0  0  0  0  0  0  0
  -13.1203   -2.2478   25.4643 C   0  0  0  0  0  0  0  0  0  0  0  0
  -12.2921   -3.3558   25.4482 C   0  0  0  0  0  0  0  0  0  0  0  0
  -12.9682   -4.4748   25.2264 F   0  0  0  0  0  0  0  0  0  0  0  0
   -5.1343   -2.3239   25.1819 F   0  0  0  0  0  0  0  0  0  0  0  0
  -13.2196    2.0739   20.2353 O   0  0  0  0  0  0  0  0  0  0  0  0
  -13.6431    3.0067   22.0781 O   0  0  0  0  0  0  0  0  0  0  0  0
  -10.5585    5.2842   27.4238 O   0  0  0  0  0  0  0  0  0  0  0  0
   -6.5896    2.7496   27.3781 F   0  0  0  0  0  0  0  0  0  0  0  0
  -13.4067    0.0665   25.8776 O   0  0  0  0  0  0  0  0  0  0  0  0
  -14.6175    0.0886   25.2821 C   0  0  0  0  0  0  0  0  0  0  0  0
  -15.6823    0.6297   26.1366 C   0  0  0  0  0  0  0  0  0  0  0  0
  2  7  1  0
  9 13  1  0
 14 19  1  0
 17 25  1  0
 10 26  1  0
 31 32  1  0
 22 33  1  0
 25 34  2  0
 25 35  1  0
  3 36  1  0
  1 37  1  0
 27 38  1  0
 38 39  1  0
 39 40  1  0
  1  2  2  0
  2  3  1  0
  3  4  2  0
  4  6  1  0
  6  5  2  0
  5  1  1  0
  7  8  2  0
  8  9  1  0
  9 10  2  0
 10 11  1  0
 11 12  2  0
 12  7  1  0
 19 20  2  0
 20 21  1  0
 21 22  2  0
 22 24  1  0
 24 23  2  0
 23 19  1  0
 26 27  2  0
 27 30  1  0
 30 31  2  0
 31 29  1  0
 29 28  2  0
 28 26  1  0
 13 14  1  0
 14 15  2  0
 15 16  1  0
 16 17  2  0
 17 18  1  0
 18 13  2  0
M  END
$$$$
