No_3820-complexes_sdf/6BKW-FPZ/2024-09-17-14-21-01/
     RDKit          3D

 16 18  0  0  0  0  0  0  0  0999 V2000
   -7.9040    3.9820   27.1177 C   0  0  0  0  0  0  0  0  0  0  0  0
   -8.2057    2.8231   26.8733 C   0  0  0  0  0  0  0  0  0  0  0  0
   -8.7463    4.9537   27.6708 C   0  0  0  0  0  0  0  0  0  0  0  0
  -10.0901    4.5164   28.0293 C   0  0  0  0  0  0  0  0  0  0  0  0
   -9.5729    2.3483   27.2382 C   0  0  0  0  0  0  0  0  0  0  0  0
  -10.4170    3.2421   27.8237 C   0  0  0  0  0  0  0  0  0  0  0  0
   -8.2216    6.5582   27.9441 Cl  0  0  0  0  0  0  0  0  0  0  0  0
   -9.8658    0.9215   27.0071 C   0  0  0  0  0  0  0  0  0  0  0  0
   -8.9186    0.1196   27.0948 N   0  0  0  0  0  0  0  0  0  0  0  0
   -9.0533   -1.1935   27.4453 C   0  0  0  0  0  0  0  0  0  0  0  0
   -7.8850   -1.9892   27.6545 C   0  0  0  0  0  0  0  0  0  0  0  0
   -6.6560   -1.3285   27.4116 C   0  0  0  0  0  0  0  0  0  0  0  0
   -6.5104   -0.0446   27.0107 C   0  0  0  0  0  0  0  0  0  0  0  0
   -7.6334    0.7203   26.9425 C   0  0  0  0  0  0  0  0  0  0  0  0
   -7.4616    2.0080   26.7872 N   0  0  0  0  0  0  0  0  0  0  0  0
  -11.0715    0.6203   27.2840 O   0  0  0  0  0  0  0  0  0  0  0  0
  3  7  1  0
  5  8  1  0
  8  9  1  0
  9 10  1  0
 11 12  1  0
  9 14  1  0
 13 14  1  0
  2 15  1  0
  8 16  2  0
 10 11  1  0
 12 13  1  0
 15 14  1  0
  1  2  2  0
  2  5  1  0
  5  6  2  0
  6  4  1  0
  4  3  2  0
  3  1  1  0
M  END
$$$$
