No_3846-complexes_sdf/6BKW-FPZ/2024-09-17-14-21-01/
     RDKit          3D

 20 23  0  0  0  0  0  0  0  0999 V2000
   -7.9040    3.9820   27.1177 C   0  0  0  0  0  0  0  0  0  0  0  0
   -7.8663    4.8694   27.9238 C   0  0  0  0  0  0  0  0  0  0  0  0
   -9.0953    3.1697   27.0532 C   0  0  0  0  0  0  0  0  0  0  0  0
   -9.1405    2.0104   26.1761 C   0  0  1  0  0  0  0  0  0  0  0  0
   -9.0299    5.5381   28.3948 C   0  0  0  0  0  0  0  0  0  0  0  0
  -10.2709    4.9222   28.1362 C   0  0  0  0  0  0  0  0  0  0  0  0
  -10.2487    3.7550   27.4045 C   0  0  0  0  0  0  0  0  0  0  0  0
   -8.6354    0.8334   26.7474 C   0  0  0  0  0  0  0  0  0  0  0  0
   -8.5551   -0.2362   26.3934 C   0  0  0  0  0  0  0  0  0  0  0  0
   -8.0040   -1.4111   27.1239 C   0  0  0  0  0  0  0  0  0  0  0  0
   -7.3542   -1.0975   28.2718 C   0  0  0  0  0  0  0  0  0  0  0  0
   -7.1139    0.2146   28.6352 C   0  0  0  0  0  0  0  0  0  0  0  0
   -7.6525    1.2361   27.9356 C   0  0  0  0  0  0  0  0  0  0  0  0
  -11.5483    3.0744   27.2267 C   0  0  0  0  0  0  0  0  0  0  0  0
  -12.5400    3.3839   28.1358 C   0  0  0  0  0  0  0  0  0  0  0  0
  -13.8306    2.7039   28.0268 C   0  0  0  0  0  0  0  0  0  0  0  0
  -13.9445    1.8232   26.9878 C   0  0  0  0  0  0  0  0  0  0  0  0
  -12.9430    1.5913   26.0872 C   0  0  0  0  0  0  0  0  0  0  0  0
  -11.7490    2.2387   26.2113 C   0  0  0  0  0  0  0  0  0  0  0  0
  -10.7345    1.6973   25.9936 C   0  0  0  0  0  0  0  0  0  0  0  0
  3  4  1  0
  7 14  1  0
  4 20  1  0
 19 20  1  0
  4  8  1  1
  8  9  2  0
  9 10  1  0
 10 11  2  0
 11 12  1  0
 12 13  2  0
 13  8  1  0
  1  2  2  0
  2  5  1  0
  5  6  2  0
  6  7  1  0
  7  3  2  0
  3  1  1  0
 14 15  2  0
 15 16  1  0
 16 17  2  0
 17 18  1  0
 18 19  2  0
 19 14  1  0
M  END
$$$$
