No_396-complexes_sdf/6BKW-FPZ/2024-09-17-14-21-01/
     RDKit          3D

 32 35  0  0  0  0  0  0  0  0999 V2000
   -7.9040    3.9820   27.1177 C   0  0  0  0  0  0  0  0  0  0  0  0
   -8.2057    2.8231   26.8733 C   0  0  0  0  0  0  0  0  0  0  0  0
   -8.7695    5.0740   26.7916 C   0  0  0  0  0  0  0  0  0  0  0  0
   -9.9618    4.7598   26.1630 C   0  0  0  0  0  0  0  0  0  0  0  0
   -9.4200    2.4524   26.2850 C   0  0  0  0  0  0  0  0  0  0  0  0
  -10.2590    3.4815   25.9250 C   0  0  0  0  0  0  0  0  0  0  0  0
   -8.3840    6.4693   27.0829 C   0  0  0  0  0  0  0  0  0  0  0  0
   -7.7453    6.8270   28.1334 N   0  0  0  0  0  0  0  0  0  0  0  0
   -8.6864    7.3668   26.2374 O   0  0  0  0  0  0  0  0  0  0  0  0
   -7.3629    1.7854   27.2811 F   0  0  0  0  0  0  0  0  0  0  0  0
  -11.7346    3.1305   25.0888 Cl  0  0  0  0  0  0  0  0  0  0  0  0
   -9.5408    0.9430   26.0488 C   0  0  2  0  0  0  0  0  0  0  0  0
   -8.8964    0.3832   25.0074 C   0  0  0  0  0  0  0  0  0  0  0  0
   -8.9444   -0.8972   24.7581 C   0  0  0  0  0  0  0  0  0  0  0  0
   -8.3088   -1.4271   23.5737 C   0  0  0  0  0  0  0  0  0  0  0  0
   -7.5553   -0.5499   22.7095 C   0  0  0  0  0  0  0  0  0  0  0  0
   -7.6189    0.7863   22.9521 C   0  0  0  0  0  0  0  0  0  0  0  0
   -8.2338    1.3208   24.0347 C   0  0  0  0  0  0  0  0  0  0  0  0
  -10.3906    0.2894   26.9240 C   0  0  0  0  0  0  0  0  0  0  0  0
  -11.3283    0.6374   27.4690 N   0  0  0  0  0  0  0  0  0  0  0  0
  -12.1169    0.0206   28.4315 C   0  0  0  0  0  0  0  0  0  0  0  0
  -10.1684   -1.0339   26.8818 O   0  0  0  0  0  0  0  0  0  0  0  0
  -13.1144    0.8320   29.0571 C   0  0  0  0  0  0  0  0  0  0  0  0
  -12.8547    2.1656   29.1990 C   0  0  0  0  0  0  0  0  0  0  0  0
  -13.9094    3.0834   29.5313 C   0  0  0  0  0  0  0  0  0  0  0  0
  -13.6506    4.4944   29.5768 C   0  0  0  0  0  0  0  0  0  0  0  0
  -14.7503    5.2710   29.7396 C   0  0  0  0  0  0  0  0  0  0  0  0
  -16.0111    4.8240   30.0620 C   0  0  0  0  0  0  0  0  0  0  0  0
  -16.1866    3.4649   30.1285 C   0  0  0  0  0  0  0  0  0  0  0  0
  -15.1769    2.5920   29.8777 C   0  0  0  0  0  0  0  0  0  0  0  0
  -14.2654    0.2772   29.6656 C   0  0  0  0  0  0  0  0  0  0  0  0
  -15.3794    1.2004   29.9303 C   0  0  0  0  0  0  0  0  0  0  0  0
  3  7  1  0
  7  8  1  0
  7  9  2  0
  2 10  1  0
  6 11  1  0
  5 12  1  0
 12 13  1  0
 12 19  1  6
 19 20  1  0
 20 21  1  0
 19 22  2  0
 21 23  1  0
 13 14  2  0
 14 15  1  0
 15 16  2  0
 16 17  1  0
 17 18  2  0
 18 13  1  0
 23 24  2  0
 24 25  1  0
 30 32  1  0
 32 31  2  0
 31 23  1  0
  1  2  2  0
  2  5  1  0
  5  6  2  0
  6  4  1  0
  4  3  2  0
  3  1  1  0
 25 26  2  0
 26 27  1  0
 27 28  2  0
 28 29  1  0
 29 30  2  0
 30 25  1  0
M  END
$$$$
