No_3101-complexes_sdf/6BKW-FPZ/2024-09-17-14-21-01/
     RDKit          3D

 12 12  0  0  0  0  0  0  0  0999 V2000
   -7.9040    3.9820   27.1177 C   0  0  0  0  0  0  0  0  0  0  0  0
   -7.8663    4.8694   27.9238 C   0  0  0  0  0  0  0  0  0  0  0  0
   -9.0491    3.8523   26.2542 C   0  0  0  0  0  0  0  0  0  0  0  0
   -8.7661    5.9491   27.9690 C   0  0  0  0  0  0  0  0  0  0  0  0
   -9.9295    4.8502   26.2323 C   0  0  0  0  0  0  0  0  0  0  0  0
   -9.8077    5.9288   27.0933 C   0  0  0  0  0  0  0  0  0  0  0  0
   -7.1139    2.7411   27.0872 C   0  0  1  0  0  0  0  0  0  0  0  0
   -5.9409    2.7538   27.9264 C   0  0  0  0  0  0  0  0  0  0  0  0
   -5.1185    1.5902   27.9983 C   0  0  0  0  0  0  0  0  0  0  0  0
   -5.5919    0.3902   27.5009 C   0  0  0  0  0  0  0  0  0  0  0  0
   -7.5036    1.4333   26.8326 C   0  0  0  0  0  0  0  0  0  0  0  0
   -8.8714    1.3230   26.2862 C   0  0  0  0  0  0  0  0  0  0  0  0
  1  7  1  0
  7  8  1  0
  8  9  2  3
  9 10  1  0
  7 11  1  1
 11 12  2  0
  1  2  2  0
  2  4  1  0
  4  6  2  0
  6  5  1  0
  5  3  2  0
  3  1  1  0
M  END
$$$$
