No_3317-complexes_sdf/6BKW-FPZ/2024-09-17-14-21-01/
     RDKit          3D

 37 39  0  0  0  0  0  0  0  0999 V2000
   -7.7129    4.2099   27.0854 C   0  0  0  0  0  0  0  0  0  0  0  0
   -7.7814    5.1722   27.8972 C   0  0  0  0  0  0  0  0  0  0  0  0
   -8.8255    3.2789   27.1191 C   0  0  0  0  0  0  0  0  0  0  0  0
   -9.9209    3.4734   27.9101 C   0  0  0  0  0  0  0  0  0  0  0  0
   -9.9736    4.7085   28.6831 C   0  0  0  0  0  0  0  0  0  0  0  0
   -8.8840    5.5441   28.6612 C   0  0  0  0  0  0  0  0  0  0  0  0
   -8.9096    1.9830   26.4133 C   0  0  0  0  0  0  0  0  0  0  0  0
   -9.6145    1.8542   25.3436 C   0  0  0  0  0  0  0  0  0  0  0  0
   -9.5640    0.6548   24.5677 C   0  0  0  0  0  0  0  0  0  0  0  0
   -8.6431   -0.3392   24.9123 C   0  0  0  0  0  0  0  0  0  0  0  0
   -7.9195    0.9261   26.6964 C   0  0  0  0  0  0  0  0  0  0  0  0
   -7.8161   -0.1631   26.0590 C   0  0  0  0  0  0  0  0  0  0  0  0
  -10.4357    0.5233   23.3897 C   0  0  1  0  0  0  0  0  0  0  0  0
  -11.6135    0.4026   23.5918 C   0  0  0  0  0  0  0  0  0  0  0  0
  -12.2162    0.5107   24.8638 C   0  0  0  0  0  0  0  0  0  0  0  0
  -13.6884    0.4152   25.0403 C   0  0  0  0  0  0  0  0  0  0  0  0
  -14.3890    0.1997   23.8792 C   0  0  0  0  0  0  0  0  0  0  0  0
  -13.8912    0.0867   22.6599 C   0  0  0  0  0  0  0  0  0  0  0  0
  -12.5286    0.2243   22.4414 C   0  0  0  0  0  0  0  0  0  0  0  0
   -9.7160    0.6353   22.1209 C   0  0  0  0  0  0  0  0  0  0  0  0
  -10.3930    0.3909   21.0812 F   0  0  0  0  0  0  0  0  0  0  0  0
   -9.1328    1.9039   21.8772 F   0  0  0  0  0  0  0  0  0  0  0  0
   -8.6366   -0.2189   22.0757 F   0  0  0  0  0  0  0  0  0  0  0  0
  -10.9530    2.7289   27.9770 F   0  0  0  0  0  0  0  0  0  0  0  0
  -15.8994    0.0558   24.0706 C   0  0  0  0  0  0  0  0  0  0  0  0
  -16.5871   -0.6178   23.6826 O   0  0  0  0  0  0  0  0  0  0  0  0
  -16.4019    1.0474   24.9647 O   0  0  0  0  0  0  0  0  0  0  0  0
  -17.6248    1.2683   25.2029 C   0  0  0  0  0  0  0  0  0  0  0  0
  -18.2323    2.1262   24.3842 C   0  0  0  0  0  0  0  0  0  0  0  0
  -19.3106    2.0055   24.0426 O   0  0  0  0  0  0  0  0  0  0  0  0
  -17.4950    3.2355   23.8957 N   0  0  0  0  0  0  0  0  0  0  0  0
  -16.2392    3.7458   24.4282 C   0  0  0  0  0  0  0  0  0  0  0  0
  -15.2975    3.9819   23.4973 C   0  0  0  0  0  0  0  0  0  0  0  0
  -14.0241    4.4232   23.9995 C   0  0  0  0  0  0  0  0  0  0  0  0
  -12.8431    4.6225   23.1967 C   0  0  0  0  0  0  0  0  0  0  0  0
  -13.0071    4.2676   21.8274 C   0  0  0  0  0  0  0  0  0  0  0  0
  -14.1829    3.8279   21.3458 C   0  0  0  0  0  0  0  0  0  0  0  0
  3  7  1  0
  9 13  1  0
 13 20  1  6
 20 21  1  0
 20 22  1  0
 20 23  1  0
  4 24  1  0
 17 25  1  0
 25 26  2  0
 25 27  1  0
 27 28  1  0
 28 29  1  0
 29 30  2  0
 29 31  1  0
 31 32  1  0
 32 33  2  3
 33 34  1  0
 34 35  2  3
 35 36  1  0
 36 37  2  0
 13 14  1  0
  7  8  2  0
  8  9  1  0
  9 10  2  0
 10 12  1  0
 12 11  2  0
 11  7  1  0
 14 15  2  0
 15 16  1  0
 16 17  2  0
 17 18  1  0
 18 19  2  0
 19 14  1  0
  1  2  2  0
  2  6  1  0
  6  5  2  0
  5  4  1  0
  4  3  2  0
  3  1  1  0
M  END
$$$$
