No_3492-complexes_sdf/6BKW-FPZ/2024-09-17-14-21-01/
     RDKit          3D

 12 12  0  0  0  0  0  0  0  0999 V2000
   -7.2496    3.8871   27.4508 C   0  0  0  0  0  0  0  0  0  0  0  0
   -8.5096    4.0291   27.2770 C   0  0  0  0  0  0  0  0  0  0  0  0
   -9.3502    2.8685   26.8763 C   0  0  0  0  0  0  0  0  0  0  0  0
   -6.7982    2.5480   27.6965 C   0  0  0  0  0  0  0  0  0  0  0  0
   -7.5015    1.4414   27.3074 C   0  0  0  0  0  0  0  0  0  0  0  0
   -8.8278    1.6572   26.9821 C   0  0  0  0  0  0  0  0  0  0  0  0
   -9.1002    5.3837   27.1534 C   0  0  1  0  0  0  0  0  0  0  0  0
  -10.2739    5.6895   27.4911 N   0  0  0  0  0  0  0  0  0  0  0  0
   -8.2167    6.3472   27.3335 F   0  0  0  0  0  0  0  0  0  0  0  0
   -6.9135    0.1247   27.3983 C   0  0  0  0  0  0  0  0  0  0  0  0
   -5.6112   -0.0576   27.7657 C   0  0  0  0  0  0  0  0  0  0  0  0
   -4.7547    0.8617   27.7641 C   0  0  0  0  0  0  0  0  0  0  0  0
  2  7  1  0
  7  8  1  1
  7  9  1  0
  5 10  1  0
 10 11  1  0
 11 12  2  0
  1  2  2  0
  2  3  1  0
  3  6  2  0
  6  5  1  0
  5  4  2  0
  4  1  1  0
M  END
$$$$
