No_3795-complexes_sdf/6BKW-FPZ/2024-09-17-14-21-01/
     RDKit          3D

 14 16  0  0  0  0  0  0  0  0999 V2000
   -7.9040    3.9820   27.1177 C   0  0  0  0  0  0  0  0  0  0  0  0
   -7.8663    4.8694   27.9238 C   0  0  0  0  0  0  0  0  0  0  0  0
   -7.4547    2.7080   27.4594 C   0  0  0  0  0  0  0  0  0  0  0  0
   -6.1474    2.6388   27.8014 C   0  0  0  0  0  0  0  0  0  0  0  0
   -8.5539    6.1392   27.6636 C   0  0  0  0  0  0  0  0  0  0  0  0
   -8.9869    4.1037   26.1859 C   0  0  0  0  0  0  0  0  0  0  0  0
   -9.4241    2.9565   25.3431 C   0  0  0  0  0  0  0  0  0  0  0  0
   -9.5891    5.3157   25.9277 C   0  0  0  0  0  0  0  0  0  0  0  0
   -9.2980    6.3472   26.7160 C   0  0  0  0  0  0  0  0  0  0  0  0
   -5.4478    1.3152   27.8772 C   0  0  0  0  0  0  0  0  0  0  0  0
   -6.1599    0.1676   27.7552 C   0  0  0  0  0  0  0  0  0  0  0  0
   -7.5251    0.2663   27.3217 C   0  0  0  0  0  0  0  0  0  0  0  0
   -8.0148    1.5067   27.1184 C   0  0  0  0  0  0  0  0  0  0  0  0
   -9.0304    1.6258   25.8862 C   0  0  0  0  0  0  0  0  0  0  0  0
  3  4  2  0
  4 10  1  0
 10 11  2  0
 11 12  1  0
 12 13  2  0
  1  2  2  0
  2  5  1  0
  5  9  2  0
  9  8  1  0
  8  6  2  0
  1  3  1  0
  3 13  1  0
 13 14  1  0
 14  7  2  0
  7  6  1  0
  6  1  1  0
M  END
$$$$
