No_3040-complexes_sdf/6BKW-FPZ/2024-09-17-14-21-01/
     RDKit          3D

 22 24  0  0  0  0  0  0  0  0999 V2000
   -7.2496    3.8871   27.4508 C   0  0  0  0  0  0  0  0  0  0  0  0
   -7.9379    4.9063   27.8518 C   0  0  0  0  0  0  0  0  0  0  0  0
   -7.5112    6.1898   27.6280 C   0  0  0  0  0  0  0  0  0  0  0  0
   -7.8078    2.6331   27.2522 C   0  0  0  0  0  0  0  0  0  0  0  0
   -9.1846    2.4724   27.5426 C   0  0  0  0  0  0  0  0  0  0  0  0
   -9.8869    3.5177   28.0783 C   0  0  0  0  0  0  0  0  0  0  0  0
   -9.3786    4.7757   28.1464 C   0  0  0  0  0  0  0  0  0  0  0  0
  -11.3108    3.2004   28.4204 C   0  0  0  0  0  0  0  0  0  0  0  0
  -12.2227    3.1939   27.5546 C   0  0  0  0  0  0  0  0  0  0  0  0
  -13.6234    2.9144   27.9428 C   0  0  0  0  0  0  0  0  0  0  0  0
  -13.8836    2.6718   29.3011 C   0  0  0  0  0  0  0  0  0  0  0  0
  -12.8920    2.7243   30.2100 C   0  0  0  0  0  0  0  0  0  0  0  0
  -11.6174    3.0070   29.8544 C   0  0  0  0  0  0  0  0  0  0  0  0
   -7.0451    1.4510   26.8431 C   0  0  0  0  0  0  0  0  0  0  0  0
   -5.9736    1.0356   27.5741 N   0  0  0  0  0  0  0  0  0  0  0  0
   -5.5185    0.0432   28.0206 C   0  0  0  0  0  0  0  0  0  0  0  0
   -4.2392    0.0280   28.8060 C   0  0  0  0  0  0  0  0  0  0  0  0
   -6.2091   -1.1965   27.9623 C   0  0  0  0  0  0  0  0  0  0  0  0
   -3.7963   -0.9937   29.6221 C   0  0  0  0  0  0  0  0  0  0  0  0
   -5.7286   -2.3177   28.7805 C   0  0  0  0  0  0  0  0  0  0  0  0
   -4.5470   -2.2203   29.5135 C   0  0  0  0  0  0  0  0  0  0  0  0
   -7.3974    0.6899   25.9396 O   0  0  0  0  0  0  0  0  0  0  0  0
  6  8  1  0
  4 14  1  0
 14 15  1  0
 14 22  2  0
 15 16  1  0
  3  2  1  0
  1  2  2  0
  2  7  1  0
  7  6  2  0
  6  5  1  0
  5  4  2  0
  4  1  1  0
  8  9  2  0
  9 10  1  0
 10 11  2  0
 11 12  1  0
 12 13  2  0
 13  8  1  0
 16 17  2  0
 17 19  1  0
 19 21  2  0
 21 20  1  0
 20 18  2  0
 18 16  1  0
M  END
$$$$
