No_3916-complexes_sdf/6BKW-FPZ/2024-09-17-14-21-01/
     RDKit          3D

 18 19  0  0  0  0  0  0  0  0999 V2000
   -7.9040    3.9820   27.1177 C   0  0  0  0  0  0  0  0  0  0  0  0
   -8.2057    2.8231   26.8733 C   0  0  0  0  0  0  0  0  0  0  0  0
   -9.2962    2.4021   26.1155 C   0  0  0  0  0  0  0  0  0  0  0  0
   -8.7358    5.0662   26.5917 C   0  0  0  0  0  0  0  0  0  0  0  0
   -9.7618    4.7023   25.7546 C   0  0  0  0  0  0  0  0  0  0  0  0
  -10.0066    3.4105   25.4922 C   0  0  0  0  0  0  0  0  0  0  0  0
   -8.3936    6.4769   26.8843 C   0  0  0  0  0  0  0  0  0  0  0  0
   -8.0660    7.5190   27.0318 N   0  0  0  0  0  0  0  0  0  0  0  0
   -9.5373    0.9624   25.8652 C   0  0  0  0  0  0  0  0  0  0  0  0
   -8.6773    0.1949   25.4962 C   0  0  0  0  0  0  0  0  0  0  0  0
   -7.4587    0.3757   25.5105 C   0  0  0  0  0  0  0  0  0  0  0  0
   -6.7167   -0.3903   26.3229 C   0  0  0  0  0  0  0  0  0  0  0  0
   -6.8084   -1.7838   26.2811 C   0  0  0  0  0  0  0  0  0  0  0  0
   -8.1657   -2.1666   25.8369 C   0  0  0  0  0  0  0  0  0  0  0  0
   -8.9872   -1.2126   26.2091 C   0  0  0  0  0  0  0  0  0  0  0  0
  -10.9521    0.6971   26.1119 C   0  0  0  0  0  0  0  0  0  0  0  0
  -11.4803    0.9568   27.0115 C   0  0  0  0  0  0  0  0  0  0  0  0
  -12.7924    0.7538   27.5223 C   0  0  0  0  0  0  0  0  0  0  0  0
  4  7  1  0
  7  8  3  0
  3  9  1  0
  9 10  1  0
  9 16  1  0
 16 17  2  3
 17 18  1  0
  1  2  2  0
  2  3  1  0
  3  6  2  0
  6  5  1  0
  5  4  2  0
  4  1  1  0
 10 11  2  0
 11 12  1  0
 12 13  2  0
 13 14  1  0
 14 15  2  0
 15 10  1  0
M  END
$$$$
