No_3182-complexes_sdf/6BKW-FPZ/2024-09-17-14-21-01/
     RDKit          3D

 21 23  0  0  0  0  0  0  0  0999 V2000
   -7.7129    4.2099   27.0854 C   0  0  0  0  0  0  0  0  0  0  0  0
   -8.9133    4.4736   27.0998 C   0  0  0  0  0  0  0  0  0  0  0  0
   -9.4643    5.5426   27.7628 C   0  0  0  0  0  0  0  0  0  0  0  0
   -6.8373    4.9942   27.9785 C   0  0  0  0  0  0  0  0  0  0  0  0
   -7.3717    6.0428   28.6744 C   0  0  0  0  0  0  0  0  0  0  0  0
   -8.6869    6.3937   28.5345 C   0  0  0  0  0  0  0  0  0  0  0  0
   -9.8029    3.6153   26.2122 C   0  0  1  0  0  0  0  0  0  0  0  0
   -9.9626    4.0202   24.8230 C   0  0  0  0  0  0  0  0  0  0  0  0
  -10.5693    3.2806   23.8758 C   0  0  1  0  0  0  0  0  0  0  0  0
  -11.0580    2.0220   24.2466 C   0  0  0  0  0  0  0  0  0  0  0  0
  -10.2406    2.3497   26.4948 C   0  0  0  0  0  0  0  0  0  0  0  0
  -10.8815    1.5203   25.5648 C   0  0  0  0  0  0  0  0  0  0  0  0
  -10.7696    3.8012   22.5296 C   0  0  0  0  0  0  0  0  0  0  0  0
  -10.2658    3.2005   21.4189 C   0  0  0  0  0  0  0  0  0  0  0  0
  -10.0222    1.9102   27.7430 F   0  0  0  0  0  0  0  0  0  0  0  0
  -11.4238    5.0975   22.3776 C   0  0  0  0  0  0  0  0  0  0  0  0
  -10.3632    3.6442   20.1675 C   0  0  0  0  0  0  0  0  0  0  0  0
  -12.0195    5.6015   23.5707 C   0  0  0  0  0  0  0  0  0  0  0  0
  -11.0861    4.9089   20.0141 C   0  0  0  0  0  0  0  0  0  0  0  0
  -11.6176    5.5479   21.0866 C   0  0  0  0  0  0  0  0  0  0  0  0
  -11.5735    1.2567   23.3804 O   0  0  0  0  0  0  0  0  0  0  0  0
  7  2  1  6
  7  8  1  0
  9 10  1  0
  7 11  1  0
 10 12  1  0
 11 12  1  0
  9 13  1  1
 11 15  1  0
 16 18  1  0
 10 21  2  0
  9  8  1  0
 13 14  2  0
 14 17  1  0
 17 19  2  0
 19 20  1  0
 20 16  2  0
 16 13  1  0
  1  2  2  0
  2  3  1  0
  3  6  2  0
  6  5  1  0
  5  4  2  0
  4  1  1  0
M  END
$$$$
