No_3766-complexes_sdf/6BKW-FPZ/2024-09-17-14-21-01/
     RDKit          3D

 28 31  0  0  0  0  0  0  0  0999 V2000
   -7.9040    3.9820   27.1177 C   0  0  0  0  0  0  0  0  0  0  0  0
   -9.0711    4.3164   27.0630 C   0  0  0  0  0  0  0  0  0  0  0  0
   -9.8698    3.9665   25.9494 C   0  0  0  0  0  0  0  0  0  0  0  0
   -7.0332    4.5030   28.2025 C   0  0  0  0  0  0  0  0  0  0  0  0
   -9.4357    2.9501   25.1393 C   0  0  0  0  0  0  0  0  0  0  0  0
   -8.2567    2.3218   25.4797 C   0  0  0  0  0  0  0  0  0  0  0  0
   -7.5105    2.7966   26.5752 C   0  0  0  0  0  0  0  0  0  0  0  0
  -10.2472    2.5204   24.0264 C   0  0  0  0  0  0  0  0  0  0  0  0
  -10.1048    1.3095   23.5388 C   0  0  0  0  0  0  0  0  0  0  0  0
  -10.7350    0.9072   22.2888 C   0  0  0  0  0  0  0  0  0  0  0  0
  -11.5710    1.8285   21.6592 C   0  0  0  0  0  0  0  0  0  0  0  0
  -10.9251    3.3813   23.2133 C   0  0  0  0  0  0  0  0  0  0  0  0
  -11.5955    3.1392   22.1165 C   0  0  0  0  0  0  0  0  0  0  0  0
   -7.3804    5.7722   28.7897 C   0  0  0  0  0  0  0  0  0  0  0  0
   -8.5949    6.3952   28.1689 C   0  0  0  0  0  0  0  0  0  0  0  0
   -9.4546    5.6735   27.3446 C   0  0  0  0  0  0  0  0  0  0  0  0
  -12.2496    1.4538   20.4018 C   0  0  0  0  0  0  0  0  0  0  0  0
  -12.5413    2.2770   19.5645 C   0  0  0  0  0  0  0  0  0  0  0  0
  -13.2546    1.9524   18.3527 C   0  0  0  0  0  0  0  0  0  0  0  0
  -13.5372    0.6222   18.1175 C   0  0  0  0  0  0  0  0  0  0  0  0
  -13.1333   -0.2999   19.0204 C   0  0  0  0  0  0  0  0  0  0  0  0
  -12.4697    0.0484   20.1487 C   0  0  0  0  0  0  0  0  0  0  0  0
  -13.4127   -1.7229   18.7195 C   0  0  0  0  0  0  0  0  0  0  0  0
  -13.3762   -2.6077   19.6955 C   0  0  0  0  0  0  0  0  0  0  0  0
  -13.6822   -3.9272   19.4894 C   0  0  0  0  0  0  0  0  0  0  0  0
  -13.6845   -4.8772   20.5526 C   0  0  0  0  0  0  0  0  0  0  0  0
  -13.3148   -4.4287   21.8200 C   0  0  0  0  0  0  0  0  0  0  0  0
  -12.9816   -3.1136   22.0604 C   0  0  0  0  0  0  0  0  0  0  0  0
  5  8  1  0
 11 17  1  0
 21 23  1  0
 23 24  2  3
 24 25  1  0
 25 26  1  0
 26 27  2  3
 27 28  1  0
  2 16  1  0
 16 15  2  0
 15 14  1  0
 14  4  2  0
  4  1  1  0
 17 18  2  0
 18 19  1  0
 19 20  2  0
 20 21  1  0
 21 22  2  0
 22 17  1  0
  8  9  2  0
  9 10  1  0
 10 11  2  0
 11 13  1  0
 13 12  2  0
 12  8  1  0
  1  2  1  0
  2  3  2  0
  3  5  1  0
  5  6  2  0
  6  7  1  0
  7  1  2  0
M  END
$$$$
