No_41-complexes_sdf/6BKW-FPZ/2024-09-17-14-21-01/
     RDKit          3D

 22 24  0  0  0  0  0  0  0  0999 V2000
   -7.7129    4.2099   27.0854 C   0  0  0  0  0  0  0  0  0  0  0  0
   -8.9133    4.4736   27.0998 C   0  0  0  0  0  0  0  0  0  0  0  0
   -9.4643    5.5426   27.7628 C   0  0  0  0  0  0  0  0  0  0  0  0
   -6.8373    4.9942   27.9785 C   0  0  0  0  0  0  0  0  0  0  0  0
   -7.3717    6.0428   28.6744 C   0  0  0  0  0  0  0  0  0  0  0  0
   -8.6869    6.3937   28.5345 C   0  0  0  0  0  0  0  0  0  0  0  0
   -9.6463    3.5300   26.1468 C   0  0  0  0  0  0  0  0  0  0  0  0
   -9.5359    2.2800   26.1550 C   0  0  0  0  0  0  0  0  0  0  0  0
   -9.0271    1.6578   27.1580 C   0  0  0  0  0  0  0  0  0  0  0  0
   -8.7612    0.3682   27.1897 C   0  0  0  0  0  0  0  0  0  0  0  0
   -9.1459   -0.4826   26.2418 C   0  0  0  0  0  0  0  0  0  0  0  0
   -9.7477    0.1302   25.0966 C   0  0  0  0  0  0  0  0  0  0  0  0
   -9.8995    1.4831   25.0204 C   0  0  0  0  0  0  0  0  0  0  0  0
  -10.5718    4.2929   25.2088 C   0  0  0  0  0  0  0  0  0  0  0  0
  -10.2134    4.3133   23.8290 C   0  0  0  0  0  0  0  0  0  0  0  0
  -11.0771    4.9012   22.9112 C   0  0  0  0  0  0  0  0  0  0  0  0
  -11.9248    4.1707   22.2284 C   0  0  0  0  0  0  0  0  0  0  0  0
  -12.2538    3.8856   21.2594 C   0  0  0  0  0  0  0  0  0  0  0  0
  -13.3422    3.0865   20.6762 C   0  0  0  0  0  0  0  0  0  0  0  0
  -14.1226    2.5457   21.6471 C   0  0  0  0  0  0  0  0  0  0  0  0
  -13.9106    2.7331   22.9228 C   0  0  0  0  0  0  0  0  0  0  0  0
  -12.8756    3.5755   23.4153 C   0  0  0  0  0  0  0  0  0  0  0  0
  2  7  1  0
  7  8  1  0
  7 14  1  0
 14 15  2  3
 15 16  1  0
 16 17  1  0
 17 18  2  0
 18 19  1  0
 19 20  2  0
 20 21  1  0
 21 22  2  0
 22 17  1  0
  1  2  2  0
  2  3  1  0
  3  6  2  0
  6  5  1  0
  5  4  2  0
  4  1  1  0
  8  9  2  0
  9 10  1  0
 10 11  2  0
 11 12  1  0
 12 13  2  0
 13  8  1  0
M  END
$$$$
