No_4940-complexes_sdf/6BKW-FPZ/2024-09-17-14-21-01/
     RDKit          3D

 27 31  0  0  0  0  0  0  0  0999 V2000
   -7.2496    3.8871   27.4508 C   0  0  0  0  0  0  0  0  0  0  0  0
   -8.5096    4.0291   27.2770 C   0  0  0  0  0  0  0  0  0  0  0  0
   -9.3451    2.8786   26.9046 C   0  0  0  0  0  0  0  0  0  0  0  0
   -8.7138    1.7135   26.7541 C   0  0  0  0  0  0  0  0  0  0  0  0
   -6.5992    2.6226   27.4994 C   0  0  0  0  0  0  0  0  0  0  0  0
   -7.3741    1.5404   27.1241 C   0  0  0  0  0  0  0  0  0  0  0  0
   -9.1432    5.3791   27.3104 C   0  0  0  0  0  0  0  0  0  0  0  0
   -8.3203    6.5255   27.1234 C   0  0  0  0  0  0  0  0  0  0  0  0
   -8.8118    7.7905   26.7211 C   0  0  0  0  0  0  0  0  0  0  0  0
   -6.7109    0.2516   27.0397 C   0  0  0  0  0  0  0  0  0  0  0  0
   -7.1072   -0.7141   26.4202 C   0  0  0  0  0  0  0  0  0  0  0  0
   -5.4252    0.1678   27.8199 C   0  0  0  0  0  0  0  0  0  0  0  0
   -4.7511    1.0163   28.3907 C   0  0  0  0  0  0  0  0  0  0  0  0
   -5.3954    2.4884   28.2231 C   0  0  0  0  0  0  0  0  0  0  0  0
   -8.2501   -0.8660   25.9963 C   0  0  0  0  0  0  0  0  0  0  0  0
   -9.3159    0.5291   26.1505 C   0  0  0  0  0  0  0  0  0  0  0  0
   -3.5481    1.0201   29.1162 C   0  0  0  0  0  0  0  0  0  0  0  0
   -2.9707   -0.3326   29.2371 C   0  0  0  0  0  0  0  0  0  0  0  0
   -3.6409   -1.3799   28.6025 C   0  0  0  0  0  0  0  0  0  0  0  0
   -4.8104   -1.1941   27.9392 C   0  0  0  0  0  0  0  0  0  0  0  0
  -10.6077    0.4722   25.6647 C   0  0  0  0  0  0  0  0  0  0  0  0
  -10.8518    0.1454   24.6301 N   0  0  0  0  0  0  0  0  0  0  0  0
  -11.0193    0.7048   23.5588 C   0  0  0  0  0  0  0  0  0  0  0  0
  -11.0353    0.0607   22.2888 C   0  0  0  0  0  0  0  0  0  0  0  0
  -11.1819   -1.3069   24.3855 C   0  0  0  0  0  0  0  0  0  0  0  0
  -11.2292   -1.9406   23.2203 C   0  0  0  0  0  0  0  0  0  0  0  0
  -11.2562   -1.2069   22.0684 C   0  0  0  0  0  0  0  0  0  0  0  0
  2  7  1  0
  7  8  1  0
  8  9  2  0
 10 12  1  0
  5 14  1  0
 13 14  1  0
 16 21  1  0
 21 22  1  0
 22 23  1  0
 22 25  1  0
 24 27  1  0
 26 27  1  0
 23 24  1  0
 26 25  1  0
  1  2  2  0
  2  3  1  0
  3  4  2  0
  6  5  2  0
  5  1  1  0
 12 13  2  0
 13 17  1  0
 17 18  2  0
 18 19  1  0
 19 20  2  0
 20 12  1  0
  4  6  1  0
  6 10  1  0
 10 11  2  0
 11 15  1  0
 15 16  2  0
 16  4  1  0
M  END
$$$$
