No_4341-complexes_sdf/6BKW-FPZ/2024-09-17-14-21-01/
     RDKit          3D

 16 17  0  0  0  0  0  0  0  0999 V2000
   -7.9040    3.9820   27.1177 C   0  0  0  0  0  0  0  0  0  0  0  0
   -7.8663    4.8694   27.9238 C   0  0  0  0  0  0  0  0  0  0  0  0
   -9.0491    3.8523   26.2542 C   0  0  0  0  0  0  0  0  0  0  0  0
   -8.7661    5.9491   27.9690 C   0  0  0  0  0  0  0  0  0  0  0  0
   -9.9279    4.8544   26.1938 C   0  0  0  0  0  0  0  0  0  0  0  0
   -9.8044    5.9413   27.0782 C   0  0  0  0  0  0  0  0  0  0  0  0
   -6.9286    2.9809   27.3910 N   0  0  0  0  0  0  0  0  0  0  0  0
   -7.1613    1.6630   27.2548 C   0  0  0  0  0  0  0  0  0  0  0  0
   -8.3222    0.9982   26.9639 C   0  0  0  0  0  0  0  0  0  0  0  0
   -8.3848   -0.3685   27.0055 C   0  0  0  0  0  0  0  0  0  0  0  0
   -7.2836   -1.0617   27.4366 C   0  0  0  0  0  0  0  0  0  0  0  0
   -6.1615    0.6736   27.7186 C   0  0  0  0  0  0  0  0  0  0  0  0
   -6.1580   -0.5350   27.7978 C   0  0  0  0  0  0  0  0  0  0  0  0
   -4.7770    1.4257   28.1735 C   0  0  0  0  0  0  0  0  0  0  0  0
   -4.4190    2.3359   27.8139 O   0  0  0  0  0  0  0  0  0  0  0  0
   -4.2552    0.8146   29.3538 N   0  0  0  0  0  0  0  0  0  0  0  0
  1  7  1  0
 12 14  1  0
 14 15  2  0
 14 16  1  0
  7  8  1  0
  1  2  2  0
  2  4  1  0
  4  6  2  0
  6  5  1  0
  5  3  2  0
  3  1  1  0
  8  9  2  0
  9 10  1  0
 10 11  2  0
 11 13  1  0
 13 12  2  0
 12  8  1  0
M  END
$$$$
