No_478-complexes_sdf/6BKW-FPZ/2024-09-17-14-21-01/
     RDKit          3D

 39 43  0  0  0  0  0  0  0  0999 V2000
   -7.2496    3.8871   27.4508 C   0  0  0  0  0  0  0  0  0  0  0  0
   -7.6161    2.7143   27.1523 C   0  0  0  0  0  0  0  0  0  0  0  0
   -8.6212    2.2239   26.4073 C   0  0  0  0  0  0  0  0  0  0  0  0
   -8.2540    4.9237   27.1711 C   0  0  0  0  0  0  0  0  0  0  0  0
   -9.3709    4.6018   26.4511 C   0  0  0  0  0  0  0  0  0  0  0  0
   -9.5922    3.3274   26.0949 C   0  0  0  0  0  0  0  0  0  0  0  0
   -7.9321    6.2329   27.5387 N   0  0  0  0  0  0  0  0  0  0  0  0
   -8.8678    0.9165   26.0535 C   0  0  0  0  0  0  0  0  0  0  0  0
   -9.1231    0.5821   24.9466 C   0  0  0  0  0  0  0  0  0  0  0  0
   -9.3077   -0.7992   24.5031 C   0  0  0  0  0  0  0  0  0  0  0  0
   -7.7494    0.0372   26.5607 C   0  0  0  0  0  0  0  0  0  0  0  0
   -7.9945   -1.4064   26.4474 C   0  0  0  0  0  0  0  0  0  0  0  0
   -7.1680   -2.2921   27.1830 C   0  0  0  0  0  0  0  0  0  0  0  0
   -8.6871   -1.7766   25.2741 C   0  0  0  0  0  0  0  0  0  0  0  0
   -7.6192   -3.1826   27.7147 O   0  0  0  0  0  0  0  0  0  0  0  0
   -5.8021   -2.1739   27.0323 O   0  0  0  0  0  0  0  0  0  0  0  0
   -8.7416    7.3190   27.1590 C   0  0  0  0  0  0  0  0  0  0  0  0
   -4.9535   -3.0551   27.4785 C   0  0  0  0  0  0  0  0  0  0  0  0
   -3.5706   -2.7769   27.0859 C   0  0  0  0  0  0  0  0  0  0  0  0
   -2.7494   -2.3113   27.5839 C   0  0  0  0  0  0  0  0  0  0  0  0
   -2.9549   -1.6339   28.9562 C   0  0  0  0  0  0  0  0  0  0  0  0
   -3.8615   -0.6274   29.0668 C   0  0  1  0  0  0  0  0  0  0  0  0
   -3.9939    0.4724   28.2614 C   0  0  0  0  0  0  0  0  0  0  0  0
   -4.8968    1.4618   28.7071 N   0  0  0  0  0  0  0  0  0  0  0  0
   -5.0047   -0.7238   29.8371 C   0  0  0  0  0  0  0  0  0  0  0  0
   -3.1027    0.8815   27.3070 N   0  0  0  0  0  0  0  0  0  0  0  0
   -4.9310   -1.7713   30.8984 C   0  0  0  0  0  0  0  0  0  0  0  0
   -3.8003   -1.8461   31.5757 C   0  0  0  0  0  0  0  0  0  0  0  0
   -2.4833   -2.1727   31.0924 C   0  0  0  0  0  0  0  0  0  0  0  0
   -2.1706   -2.1792   29.9770 C   0  0  0  0  0  0  0  0  0  0  0  0
   -6.1206   -2.4948   31.2751 C   0  0  0  0  0  0  0  0  0  0  0  0
   -6.0820   -3.1236   32.4452 C   0  0  0  0  0  0  0  0  0  0  0  0
   -5.0064   -2.9890   33.3449 C   0  0  0  0  0  0  0  0  0  0  0  0
   -3.9806   -2.4078   33.0036 C   0  0  0  0  0  0  0  0  0  0  0  0
   -3.2358   -3.7856   25.9978 C   0  0  0  0  0  0  0  0  0  0  0  0
   -1.4491   -1.9630   27.0030 C   0  0  0  0  0  0  0  0  0  0  0  0
   -2.1164   -3.4973   25.2510 C   0  0  0  0  0  0  0  0  0  0  0  0
   -1.0684   -2.6994   25.8501 C   0  0  0  0  0  0  0  0  0  0  0  0
   -2.1930    0.0885   26.8545 O   0  0  0  0  0  0  0  0  0  0  0  0
  4  7  1  0
  3  8  1  0
 12 13  1  0
 13 15  2  0
 13 16  1  0
  7 17  1  0
 16 18  1  0
 18 19  1  0
 20 21  1  0
 21 22  1  0
 22 23  1  6
 23 24  2  0
 22 25  1  0
 23 26  1  0
 25 27  1  0
 28 29  1  0
 21 30  1  0
 29 30  2  0
 26 39  2  0
 27 28  2  0
 28 34  1  0
 34 33  2  0
 33 32  1  0
 32 31  2  0
 31 27  1  0
  1  2  2  0
  2  3  1  0
  3  6  2  0
  6  5  1  0
  5  4  2  0
  4  1  1  0
 19 20  2  0
 20 36  1  0
 36 38  2  0
 38 37  1  0
 37 35  2  0
 35 19  1  0
  8  9  2  0
  9 10  1  0
 10 14  2  0
 14 12  1  0
 12 11  2  0
 11  8  1  0
M  END
$$$$
