No_4184-complexes_sdf/6BKW-FPZ/2024-09-17-14-21-01/
     RDKit          3D

 22 25  0  0  0  0  0  0  0  0999 V2000
   -7.9040    3.9820   27.1177 C   0  0  0  0  0  0  0  0  0  0  0  0
   -9.0711    4.3164   27.0630 C   0  0  0  0  0  0  0  0  0  0  0  0
   -9.5294    5.4517   27.7215 C   0  0  0  0  0  0  0  0  0  0  0  0
   -7.4336    2.7132   26.5681 C   0  0  0  0  0  0  0  0  0  0  0  0
   -8.3353    1.8569   26.0442 C   0  0  2  0  0  0  0  0  0  0  0  0
   -9.6477    2.2853   25.9146 C   0  0  2  0  0  0  0  0  0  0  0  0
  -10.0346    3.4497   26.4483 C   0  0  0  0  0  0  0  0  0  0  0  0
   -8.0762    0.4833   25.6823 C   0  0  0  0  0  0  0  0  0  0  0  0
   -8.5371   -0.3427   26.1993 C   0  0  0  0  0  0  0  0  0  0  0  0
   -9.3583   -0.4697   27.0779 C   0  0  0  0  0  0  0  0  0  0  0  0
   -9.9459   -1.6574   27.8114 C   0  0  0  0  0  0  0  0  0  0  0  0
  -10.8495   -1.5460   28.8595 C   0  0  0  0  0  0  0  0  0  0  0  0
  -11.4913   -0.2760   29.0673 C   0  0  0  0  0  0  0  0  0  0  0  0
  -11.0798    0.8937   28.4390 C   0  0  0  0  0  0  0  0  0  0  0  0
  -10.1450    0.8071   27.5989 C   0  0  0  0  0  0  0  0  0  0  0  0
  -10.5345    1.1202   26.5894 C   0  0  0  0  0  0  0  0  0  0  0  0
   -9.9564    2.1529   24.3768 C   0  0  0  0  0  0  0  0  0  0  0  0
  -10.7858    2.8626   23.7711 C   0  0  0  0  0  0  0  0  0  0  0  0
  -10.9084    2.9891   22.4188 C   0  0  0  0  0  0  0  0  0  0  0  0
  -10.1024    2.1307   21.6343 C   0  0  0  0  0  0  0  0  0  0  0  0
   -9.1932    1.2585   22.2454 C   0  0  0  0  0  0  0  0  0  0  0  0
   -9.0780    1.3068   23.6182 C   0  0  0  0  0  0  0  0  0  0  0  0
  1  2  1  0
  2  3  2  0
  1  4  1  0
  5  4  1  1
  5  6  1  0
  2  7  1  0
  6  7  1  0
  5  8  1  0
  8  9  1  0
  6 16  1  0
 15 16  1  0
  6 17  1  6
  9 10  1  0
 17 18  2  0
 18 19  1  0
 19 20  2  0
 20 21  1  0
 21 22  2  0
 22 17  1  0
 10 11  2  0
 11 12  1  0
 12 13  2  0
 13 14  1  0
 14 15  2  0
 15 10  1  0
M  END
$$$$
