No_4110-complexes_sdf/6BKW-FPZ/2024-09-17-14-21-01/
     RDKit          3D

 37 41  0  0  0  0  0  0  0  0999 V2000
   -7.9040    3.9820   27.1177 C   0  0  0  0  0  0  0  0  0  0  0  0
   -8.2057    2.8231   26.8733 C   0  0  0  0  0  0  0  0  0  0  0  0
   -8.7463    4.9537   27.6708 C   0  0  0  0  0  0  0  0  0  0  0  0
   -8.3921    6.3606   27.8466 C   0  0  0  0  0  0  0  0  0  0  0  0
   -9.5482    2.3521   27.1946 C   0  0  0  0  0  0  0  0  0  0  0  0
  -10.4264    3.2507   27.7616 C   0  0  0  0  0  0  0  0  0  0  0  0
  -10.0702    4.5620   28.0189 C   0  0  0  0  0  0  0  0  0  0  0  0
   -8.2006    7.1383   26.5262 C   0  0  0  0  0  0  0  0  0  0  0  0
   -9.9299    0.6862   27.0359 Cl  0  0  0  0  0  0  0  0  0  0  0  0
   -7.4609    8.2875   26.8596 C   0  0  0  0  0  0  0  0  0  0  0  0
   -9.0451    6.9609   25.5890 C   0  0  0  0  0  0  0  0  0  0  0  0
  -11.7664    2.7260   28.1941 C   0  0  0  0  0  0  0  0  0  0  0  0
  -12.2451    3.1646   29.3707 C   0  0  0  0  0  0  0  0  0  0  0  0
  -13.5550    2.7851   29.8222 C   0  0  0  0  0  0  0  0  0  0  0  0
  -14.2361    1.8599   29.0653 C   0  0  0  0  0  0  0  0  0  0  0  0
  -13.6902    1.3888   27.8894 C   0  0  0  0  0  0  0  0  0  0  0  0
  -12.4859    1.8268   27.4967 C   0  0  0  0  0  0  0  0  0  0  0  0
  -14.1199    3.3481   31.1081 C   0  0  0  0  0  0  0  0  0  0  0  0
  -14.8063    3.1805   31.9054 C   0  0  0  0  0  0  0  0  0  0  0  0
  -15.0859    3.9865   33.0988 C   0  0  0  0  0  0  0  0  0  0  0  0
  -14.3469    5.1438   33.2881 C   0  0  0  0  0  0  0  0  0  0  0  0
  -13.4196    5.4461   32.2993 C   0  0  0  0  0  0  0  0  0  0  0  0
  -13.1675    4.6859   31.2855 C   0  0  0  0  0  0  0  0  0  0  0  0
  -14.7315    5.9647   34.7584 Cl  0  0  0  0  0  0  0  0  0  0  0  0
   -7.3393    1.8918   26.4141 O   0  0  0  0  0  0  0  0  0  0  0  0
   -6.6570    1.0939   27.2836 C   0  0  0  0  0  0  0  0  0  0  0  0
   -6.3815   -0.2364   26.9062 C   0  0  0  0  0  0  0  0  0  0  0  0
   -5.6040   -0.9692   27.8258 C   0  0  0  0  0  0  0  0  0  0  0  0
   -4.8471   -0.3498   28.8870 C   0  0  0  0  0  0  0  0  0  0  0  0
   -4.9817    1.0799   28.9657 C   0  0  0  0  0  0  0  0  0  0  0  0
   -5.7395    1.7946   28.1546 C   0  0  0  0  0  0  0  0  0  0  0  0
   -3.9763   -1.1017   29.7552 C   0  0  0  0  0  0  0  0  0  0  0  0
   -3.3201   -0.8490   30.5519 N   0  0  0  0  0  0  0  0  0  0  0  0
   -2.5001   -1.6279   31.3286 C   0  0  0  0  0  0  0  0  0  0  0  0
   -2.3252   -2.8408   30.8471 C   0  0  0  0  0  0  0  0  0  0  0  0
   -3.7181   -2.4992   29.3682 C   0  0  0  0  0  0  0  0  0  0  0  0
   -2.9229   -3.3058   29.9621 C   0  0  0  0  0  0  0  0  0  0  0  0
  3  4  1  0
  4  8  1  0
  5  9  1  0
  8 10  1  0
  8 11  1  0
  6 12  1  0
 14 18  1  0
 21 24  1  0
  2 25  1  0
 25 26  1  0
 29 32  1  0
 12 13  2  0
 13 14  1  0
 14 15  2  0
 15 16  1  0
 16 17  2  0
 17 12  1  0
 18 19  2  0
 19 20  1  0
 20 21  2  0
 21 22  1  0
 22 23  2  0
 23 18  1  0
 32 33  2  0
 33 34  1  0
 34 35  2  0
 35 37  1  0
 37 36  2  0
 36 32  1  0
  1  2  2  0
  2  5  1  0
  5  6  2  0
  6  7  1  0
  7  3  2  0
  3  1  1  0
 26 27  2  0
 27 28  1  0
 28 29  2  0
 29 30  1  0
 30 31  2  0
 31 26  1  0
M  END
$$$$
