No_4434-complexes_sdf/6BKW-FPZ/2024-09-17-14-21-01/
     RDKit          3D

 15 16  0  0  0  0  0  0  0  0999 V2000
   -7.9040    3.9820   27.1177 C   0  0  0  0  0  0  0  0  0  0  0  0
   -8.2057    2.8231   26.8733 C   0  0  0  0  0  0  0  0  0  0  0  0
   -9.2962    2.4021   26.1155 C   0  0  0  0  0  0  0  0  0  0  0  0
   -8.7358    5.0662   26.5917 C   0  0  0  0  0  0  0  0  0  0  0  0
   -8.4603    6.4492   26.8781 C   0  0  0  0  0  0  0  0  0  0  0  0
  -10.1146    3.3815   25.6105 C   0  0  0  0  0  0  0  0  0  0  0  0
   -9.8194    4.7235   25.8263 C   0  0  0  0  0  0  0  0  0  0  0  0
   -8.2580    6.8041   28.0668 O   0  0  0  0  0  0  0  0  0  0  0  0
   -8.5365    7.3190   25.9134 O   0  0  0  0  0  0  0  0  0  0  0  0
   -7.3081    1.6770   27.4464 C   0  0  0  0  0  0  0  0  0  0  0  0
   -5.9876    1.9660   27.8325 C   0  0  0  0  0  0  0  0  0  0  0  0
   -5.1478    0.9167   28.3260 C   0  0  0  0  0  0  0  0  0  0  0  0
   -5.5673   -0.3823   28.3924 C   0  0  0  0  0  0  0  0  0  0  0  0
   -7.8081    0.3636   27.5332 C   0  0  0  0  0  0  0  0  0  0  0  0
   -6.9107   -0.6127   28.0494 C   0  0  0  0  0  0  0  0  0  0  0  0
  4  5  1  0
  5  8  2  0
  5  9  1  0
  2 10  1  0
  1  2  2  0
  2  3  1  0
  3  6  2  0
  6  7  1  0
  7  4  2  0
  4  1  1  0
 10 11  2  0
 11 12  1  0
 12 13  2  0
 13 15  1  0
 15 14  2  0
 14 10  1  0
M  END
$$$$
