No_4450-complexes_sdf/6BKW-FPZ/2024-09-17-14-21-01/
     RDKit          3D

 30 34  0  0  0  0  0  0  0  0999 V2000
   -7.7129    4.2099   27.0854 C   0  0  0  0  0  0  0  0  0  0  0  0
   -7.7814    5.1722   27.8972 C   0  0  0  0  0  0  0  0  0  0  0  0
   -7.2983    2.9533   27.5684 C   0  0  0  0  0  0  0  0  0  0  0  0
   -7.6908    1.8111   26.9553 C   0  0  1  0  0  0  0  0  0  0  0  0
   -8.6533    1.9165   25.9430 C   0  0  0  0  0  0  0  0  0  0  0  0
   -9.2376    3.0581   25.6387 C   0  0  0  0  0  0  0  0  0  0  0  0
   -8.8901    4.1760   26.2867 C   0  0  0  0  0  0  0  0  0  0  0  0
   -8.3432    6.4292   27.5920 N   0  0  0  0  0  0  0  0  0  0  0  0
   -9.4193    5.4820   25.9991 C   0  0  0  0  0  0  0  0  0  0  0  0
   -9.0920    6.5642   26.7047 N   0  0  0  0  0  0  0  0  0  0  0  0
   -7.0410    0.5378   27.2245 C   0  0  0  0  0  0  0  0  0  0  0  0
   -5.7968    0.4753   27.8814 C   0  0  0  0  0  0  0  0  0  0  0  0
   -5.2079   -0.7141   28.2058 C   0  0  0  0  0  0  0  0  0  0  0  0
   -5.9290   -1.8501   27.9996 C   0  0  0  0  0  0  0  0  0  0  0  0
   -7.5972   -0.7313   27.1507 C   0  0  0  0  0  0  0  0  0  0  0  0
   -7.1436   -1.8564   27.5138 C   0  0  0  0  0  0  0  0  0  0  0  0
   -3.8417   -0.6765   28.8864 C   0  0  2  0  0  0  0  0  0  0  0  0
   -2.7012   -1.2390   28.3256 C   0  0  0  0  0  0  0  0  0  0  0  0
   -3.7243   -0.1140   30.2466 C   0  0  0  0  0  0  0  0  0  0  0  0
   -3.9225   -0.9263   31.4179 C   0  0  0  0  0  0  0  0  0  0  0  0
   -3.8805   -1.9769   31.4236 C   0  0  0  0  0  0  0  0  0  0  0  0
   -4.1443   -2.7489   32.7368 C   0  0  0  0  0  0  0  0  0  0  0  0
   -4.3651   -2.0086   33.9003 C   0  0  0  0  0  0  0  0  0  0  0  0
   -4.3876   -0.5957   33.8187 C   0  0  0  0  0  0  0  0  0  0  0  0
   -4.1689    0.0384   32.6276 C   0  0  0  0  0  0  0  0  0  0  0  0
   -1.9575   -1.9743   28.8123 C   0  0  0  0  0  0  0  0  0  0  0  0
   -2.5820   -0.8185   26.8984 C   0  0  0  0  0  0  0  0  0  0  0  0
   -0.7783   -2.5527   28.2104 C   0  0  0  0  0  0  0  0  0  0  0  0
   -0.6618   -2.1839   26.8517 C   0  0  0  0  0  0  0  0  0  0  0  0
   -1.5559   -1.3701   26.1952 C   0  0  0  0  0  0  0  0  0  0  0  0
  1  3  1  0
  3  4  1  0
  4  5  1  0
  5  6  1  0
  6  7  1  0
  4 11  1  6
 13 17  1  0
 17 18  1  0
 17 19  1  1
 19 20  1  0
 18 26  2  0
 26 28  1  0
 28 29  2  0
 29 30  1  0
 30 27  2  0
 27 18  1  0
  1  2  2  0
  2  8  1  0
  8 10  2  0
 10  9  1  0
  9  7  2  0
  7  1  1  0
 11 12  2  0
 12 13  1  0
 13 14  2  0
 14 16  1  0
 16 15  2  0
 15 11  1  0
 20 21  2  0
 21 22  1  0
 22 23  2  0
 23 24  1  0
 24 25  2  0
 25 20  1  0
M  END
$$$$
