No_463-complexes_sdf/6BKW-FPZ/2024-09-17-14-21-01/
     RDKit          3D

  9  9  0  0  0  0  0  0  0  0999 V2000
   -7.7129    4.2099   27.0854 C   0  0  0  0  0  0  0  0  0  0  0  0
   -7.7814    5.1722   27.8972 C   0  0  0  0  0  0  0  0  0  0  0  0
   -8.8255    3.2789   27.1191 C   0  0  0  0  0  0  0  0  0  0  0  0
   -9.9209    3.4734   27.9101 C   0  0  0  0  0  0  0  0  0  0  0  0
  -10.9988    2.5645   28.0473 C   0  0  0  0  0  0  0  0  0  0  0  0
   -8.9569    5.5944   28.6231 C   0  0  0  0  0  0  0  0  0  0  0  0
   -9.9727    4.6600   28.6972 C   0  0  0  0  0  0  0  0  0  0  0  0
  -11.0986    1.6793   26.9484 Br  0  0  0  0  0  0  0  0  0  0  0  0
  -11.5332    2.4844   29.2276 O   0  0  0  0  0  0  0  0  0  0  0  0
  4  5  1  0
  5  8  1  0
  5  9  2  0
  1  2  2  0
  2  6  1  0
  6  7  2  0
  7  4  1  0
  4  3  2  0
  3  1  1  0
M  END
$$$$
