No_4345-complexes_sdf/6BKW-FPZ/2024-09-17-14-21-01/
     RDKit          3D

 25 28  0  0  0  0  0  0  0  0999 V2000
   -7.9040    3.9820   27.1177 C   0  0  0  0  0  0  0  0  0  0  0  0
   -7.8663    4.8694   27.9238 C   0  0  0  0  0  0  0  0  0  0  0  0
   -7.4698    2.6989   27.4277 C   0  0  0  0  0  0  0  0  0  0  0  0
   -7.9683    1.5964   26.8266 C   0  0  1  0  0  0  0  0  0  0  0  0
   -8.9447    1.7923   25.8533 C   0  0  0  0  0  0  0  0  0  0  0  0
   -9.4405    2.9988   25.5757 C   0  0  0  0  0  0  0  0  0  0  0  0
   -8.9424    4.1117   26.2388 C   0  0  0  0  0  0  0  0  0  0  0  0
   -8.2732    6.2141   27.6484 N   0  0  0  0  0  0  0  0  0  0  0  0
   -9.1540    6.5068   26.6734 C   0  0  0  0  0  0  0  0  0  0  0  0
   -9.5312    5.3927   25.9147 C   0  0  0  0  0  0  0  0  0  0  0  0
   -7.3887    0.2740   27.0971 C   0  0  0  0  0  0  0  0  0  0  0  0
   -6.0712    0.1202   27.4872 C   0  0  0  0  0  0  0  0  0  0  0  0
   -5.5394   -1.0762   27.8371 C   0  0  0  0  0  0  0  0  0  0  0  0
   -6.3810   -2.1675   27.7631 C   0  0  0  0  0  0  0  0  0  0  0  0
   -8.2554   -0.8700   27.2181 C   0  0  0  0  0  0  0  0  0  0  0  0
   -7.7282   -2.0701   27.5123 C   0  0  0  0  0  0  0  0  0  0  0  0
   -4.1020   -1.1653   28.1895 C   0  0  0  0  0  0  0  0  0  0  0  0
   -3.8107   -0.8188   29.5461 C   0  0  0  0  0  0  0  0  0  0  0  0
   -3.9755    0.4689   29.9883 C   0  0  0  0  0  0  0  0  0  0  0  0
   -3.2423   -1.7920   30.4218 C   0  0  0  0  0  0  0  0  0  0  0  0
   -3.0085   -1.5045   31.7942 C   0  0  0  0  0  0  0  0  0  0  0  0
   -3.6430    0.7505   31.4367 C   0  0  0  0  0  0  0  0  0  0  0  0
   -3.1235   -0.2134   32.2504 C   0  0  0  0  0  0  0  0  0  0  0  0
   -3.2796   -0.2694   27.2490 C   0  0  0  0  0  0  0  0  0  0  0  0
   -3.7206   -2.5803   27.9130 C   0  0  0  0  0  0  0  0  0  0  0  0
  1  3  1  0
  3  4  1  0
  4  5  1  0
  5  6  1  0
  6  7  1  0
  4 11  1  6
 13 17  1  0
 17 18  1  0
 17 24  1  0
 17 25  1  0
  1  2  2  0
  2  8  1  0
  8  9  2  0
  9 10  1  0
 10  7  2  0
  7  1  1  0
 18 19  2  0
 19 22  1  0
 22 23  2  0
 23 21  1  0
 21 20  2  0
 20 18  1  0
 11 12  2  0
 12 13  1  0
 13 14  2  0
 14 16  1  0
 16 15  2  0
 15 11  1  0
M  END
$$$$
