No_4796-complexes_sdf/6BKW-FPZ/2024-09-17-14-21-01/
     RDKit          3D

 27 30  0  0  0  0  0  0  0  0999 V2000
   -7.7129    4.2099   27.0854 C   0  0  0  0  0  0  0  0  0  0  0  0
   -8.2112    3.0637   26.9225 C   0  0  2  0  0  0  0  0  0  0  0  0
   -7.0021    4.5281   28.2396 C   0  0  0  0  0  0  0  0  0  0  0  0
   -9.4237    2.7810   26.2714 C   0  0  0  0  0  0  0  0  0  0  0  0
   -9.8781    3.7859   25.4663 C   0  0  2  0  0  0  0  0  0  0  0  0
   -9.3689    5.0975   25.5965 C   0  0  0  0  0  0  0  0  0  0  0  0
   -8.4784    5.3402   26.5448 C   0  0  0  0  0  0  0  0  0  0  0  0
  -10.9798    3.5389   24.5162 C   0  0  0  0  0  0  0  0  0  0  0  0
  -12.1748    3.3346   24.9229 C   0  0  0  0  0  0  0  0  0  0  0  0
  -10.6702    3.5739   23.1295 C   0  0  0  0  0  0  0  0  0  0  0  0
  -13.2517    3.1581   24.0343 C   0  0  0  0  0  0  0  0  0  0  0  0
  -11.6210    3.4590   22.1597 C   0  0  0  0  0  0  0  0  0  0  0  0
  -12.9537    3.2325   22.6283 C   0  0  0  0  0  0  0  0  0  0  0  0
   -7.6087    1.8340   27.6163 C   0  0  0  0  0  0  0  0  0  0  0  0
   -6.8249    0.9627   26.8294 C   0  0  0  0  0  0  0  0  0  0  0  0
   -7.4855   -0.1565   26.4155 C   0  0  0  0  0  0  0  0  0  0  0  0
   -8.5270   -0.4121   26.3598 C   0  0  0  0  0  0  0  0  0  0  0  0
   -9.2536   -1.3199   25.9818 C   0  0  0  0  0  0  0  0  0  0  0  0
   -8.5261   -2.3918   25.3455 C   0  0  0  0  0  0  0  0  0  0  0  0
   -6.5680   -1.2121   25.7958 C   0  0  0  0  0  0  0  0  0  0  0  0
   -7.1846   -2.3196   25.2669 C   0  0  0  0  0  0  0  0  0  0  0  0
  -10.7497   -1.5754   26.0353 C   0  0  0  0  0  0  0  0  0  0  0  0
  -11.3037   -1.2474   27.1803 C   0  0  0  0  0  0  0  0  0  0  0  0
  -12.5941   -0.7640   27.1915 C   0  0  0  0  0  0  0  0  0  0  0  0
  -13.3696   -0.8580   26.0671 C   0  0  0  0  0  0  0  0  0  0  0  0
  -12.7930   -1.1970   24.8542 C   0  0  0  0  0  0  0  0  0  0  0  0
  -11.4229   -1.3915   24.8363 C   0  0  0  0  0  0  0  0  0  0  0  0
  1  2  1  0
  1  3  2  0
  2  4  1  0
  4  5  1  0
  5  6  1  0
  1  7  1  0
  6  7  1  0
  5  8  1  1
  2 14  1  1
 14 15  1  0
 15 16  1  0
 18 22  1  0
  8  9  2  0
  9 11  1  0
 11 13  2  0
 13 12  1  0
 12 10  2  0
 10  8  1  0
 22 23  2  0
 23 24  1  0
 24 25  2  0
 25 26  1  0
 26 27  2  0
 27 22  1  0
 16 17  2  0
 17 18  1  0
 18 19  2  0
 19 21  1  0
 21 20  2  0
 20 16  1  0
M  END
$$$$
