No_4554-complexes_sdf/6BKW-FPZ/2024-09-17-14-21-01/
     RDKit          3D

  9  9  0  0  0  0  0  0  0  0999 V2000
   -7.7129    4.2099   27.0854 C   0  0  0  0  0  0  0  0  0  0  0  0
   -7.7814    5.1722   27.8972 C   0  0  0  0  0  0  0  0  0  0  0  0
   -8.8998    3.8713   26.3707 C   0  0  0  0  0  0  0  0  0  0  0  0
   -9.8197    4.2636   26.6487 C   0  0  0  0  0  0  0  0  0  0  0  0
  -10.0564    5.4056   27.4736 C   0  0  0  0  0  0  0  0  0  0  0  0
   -8.9370    5.9018   28.1282 C   0  0  0  0  0  0  0  0  0  0  0  0
   -8.6843    2.7266   25.5643 F   0  0  0  0  0  0  0  0  0  0  0  0
  -11.3388    3.7742   25.7926 Cl  0  0  0  0  0  0  0  0  0  0  0  0
   -6.6838    5.6384   28.6117 F   0  0  0  0  0  0  0  0  0  0  0  0
  3  7  1  0
  4  8  1  0
  2  9  1  0
  1  2  2  0
  2  6  1  0
  6  5  2  0
  5  4  1  0
  4  3  2  0
  3  1  1  0
M  END
$$$$
