No_4569-complexes_sdf/6BKW-FPZ/2024-09-17-14-21-01/
     RDKit          3D

 18 20  0  0  0  0  0  0  0  0999 V2000
   -7.7129    4.2099   27.0854 C   0  0  0  0  0  0  0  0  0  0  0  0
   -7.7814    5.1722   27.8972 C   0  0  0  0  0  0  0  0  0  0  0  0
   -8.8776    3.8408   26.3416 C   0  0  0  0  0  0  0  0  0  0  0  0
   -9.9844    4.6492   26.4743 C   0  0  0  0  0  0  0  0  0  0  0  0
   -8.7830    6.1594   27.8870 C   0  0  0  0  0  0  0  0  0  0  0  0
   -9.9269    5.8191   27.1183 C   0  0  0  0  0  0  0  0  0  0  0  0
   -8.8833    2.5999   25.5655 C   0  0  0  0  0  0  0  0  0  0  0  0
   -9.7748    2.4367   24.5471 C   0  0  0  0  0  0  0  0  0  0  0  0
   -9.7759    1.3118   23.7445 C   0  0  0  0  0  0  0  0  0  0  0  0
   -8.9586    0.5205   23.8673 C   0  0  0  0  0  0  0  0  0  0  0  0
   -7.9495    0.4592   24.9163 C   0  0  0  0  0  0  0  0  0  0  0  0
   -7.9101    1.5786   25.7656 C   0  0  0  0  0  0  0  0  0  0  0  0
   -8.8890   -0.8019   22.9879 C   0  0  0  0  0  0  0  0  0  0  0  0
   -7.8108   -1.2462   22.5027 C   0  0  0  0  0  0  0  0  0  0  0  0
   -7.7449   -2.4017   21.5990 C   0  0  0  0  0  0  0  0  0  0  0  0
   -8.9771   -2.8511   21.0880 C   0  0  0  0  0  0  0  0  0  0  0  0
  -10.0528   -1.2800   22.3785 C   0  0  0  0  0  0  0  0  0  0  0  0
  -10.0903   -2.2678   21.5009 C   0  0  0  0  0  0  0  0  0  0  0  0
  3  7  1  0
 10 13  1  0
 13 14  2  0
 14 15  1  0
 15 16  2  0
 16 18  1  0
 18 17  2  0
 17 13  1  0
  1  2  2  0
  2  5  1  0
  5  6  2  0
  6  4  1  0
  4  3  2  0
  3  1  1  0
  7  8  2  0
  8  9  1  0
  9 10  2  0
 10 11  1  0
 11 12  2  0
 12  7  1  0
M  END
$$$$
