No_418-complexes_sdf/6BKW-FPZ/2024-09-17-14-21-01/
     RDKit          3D

 21 23  0  0  0  0  0  0  0  0999 V2000
   -7.7129    4.2099   27.0854 C   0  0  0  0  0  0  0  0  0  0  0  0
   -8.9133    4.4736   27.0998 C   0  0  0  0  0  0  0  0  0  0  0  0
   -9.4616    5.6470   27.6290 C   0  0  0  0  0  0  0  0  0  0  0  0
   -6.8722    5.1130   27.9248 C   0  0  0  0  0  0  0  0  0  0  0  0
   -7.3801    6.2535   28.4126 C   0  0  0  0  0  0  0  0  0  0  0  0
   -8.6734    6.5530   28.2150 C   0  0  0  0  0  0  0  0  0  0  0  0
   -9.9642    3.5985   26.4507 C   0  0  0  0  0  0  0  0  0  0  0  0
  -10.5432    3.6627   25.4672 C   0  0  0  0  0  0  0  0  0  0  0  0
  -11.3823    2.8061   24.7969 C   0  0  0  0  0  0  0  0  0  0  0  0
  -12.0496    3.0659   23.5283 C   0  0  0  0  0  0  0  0  0  0  0  0
  -12.8135    2.1330   22.9091 C   0  0  0  0  0  0  0  0  0  0  0  0
   -9.9607    2.2172   27.0375 C   0  0  0  0  0  0  0  0  0  0  0  0
  -10.8067    1.2613   26.5262 C   0  0  0  0  0  0  0  0  0  0  0  0
  -11.5077    1.5627   25.3864 C   0  0  0  0  0  0  0  0  0  0  0  0
  -11.8553    4.3959   22.9070 C   0  0  0  0  0  0  0  0  0  0  0  0
  -13.3640    2.3633   21.8169 C   0  0  0  0  0  0  0  0  0  0  0  0
  -12.4561    4.6406   21.7013 C   0  0  0  0  0  0  0  0  0  0  0  0
  -13.2363    3.6891   21.1137 C   0  0  0  0  0  0  0  0  0  0  0  0
  -10.9313   -0.0580   27.1808 C   0  0  0  0  0  0  0  0  0  0  0  0
  -11.9153   -0.6305   27.1978 C   0  0  0  0  0  0  0  0  0  0  0  0
  -12.0638   -1.9787   27.8305 C   0  0  0  0  0  0  0  0  0  0  0  0
  2  7  1  0
  9 10  1  0
 13 19  1  0
 19 20  2  3
 20 21  1  0
  7  8  2  0
  8  9  1  0
  9 14  2  0
 14 13  1  0
 13 12  2  0
 12  7  1  0
  1  2  2  0
  2  3  1  0
  3  6  2  0
  6  5  1  0
  5  4  2  0
  4  1  1  0
 10 11  2  0
 11 16  1  0
 16 18  2  0
 18 17  1  0
 17 15  2  0
 15 10  1  0
M  END
$$$$
