No_4528-complexes_sdf/6BKW-FPZ/2024-09-17-14-21-01/
     RDKit          3D

 19 20  0  0  0  0  0  0  0  0999 V2000
   -7.7129    4.2099   27.0854 C   0  0  0  0  0  0  0  0  0  0  0  0
   -8.2112    3.0637   26.9225 C   0  0  0  0  0  0  0  0  0  0  0  0
   -8.5108    5.3904   26.9436 C   0  0  0  0  0  0  0  0  0  0  0  0
   -9.7256    5.1955   26.3518 C   0  0  0  0  0  0  0  0  0  0  0  0
   -9.4995    2.8258   26.4878 C   0  0  0  0  0  0  0  0  0  0  0  0
  -10.2542    3.9691   26.2055 C   0  0  0  0  0  0  0  0  0  0  0  0
   -7.9985    6.9786   27.3149 Cl  0  0  0  0  0  0  0  0  0  0  0  0
   -7.3491    1.8488   27.2407 C   0  0  0  0  0  0  0  0  0  0  0  0
   -7.7861    0.6050   27.1377 N   0  0  0  0  0  0  0  0  0  0  0  0
   -6.0763    2.0243   27.6378 N   0  0  0  0  0  0  0  0  0  0  0  0
   -6.7084   -0.1506   27.5263 C   0  0  0  0  0  0  0  0  0  0  0  0
   -6.6718   -1.5501   27.6252 C   0  0  0  0  0  0  0  0  0  0  0  0
   -5.6099    0.6330   27.8722 C   0  0  0  0  0  0  0  0  0  0  0  0
   -7.4469   -2.2742   27.3778 C   0  0  0  0  0  0  0  0  0  0  0  0
   -8.6964   -1.8379   26.9360 C   0  0  0  0  0  0  0  0  0  0  0  0
   -9.6877   -2.8815   26.6296 C   0  0  0  0  0  0  0  0  0  0  0  0
  -10.9798   -2.4269   26.1928 C   0  0  0  0  0  0  0  0  0  0  0  0
  -11.2410   -1.0546   26.0781 C   0  0  0  0  0  0  0  0  0  0  0  0
  -10.3267   -0.1461   26.4345 C   0  0  0  0  0  0  0  0  0  0  0  0
  3  7  1  0
  2  8  1  0
  8  9  1  0
  8 10  2  0
  9 11  1  0
 11 12  1  0
 10 13  1  0
 11 13  1  0
 12 14  1  0
 14 15  2  3
 15 16  1  0
 16 17  2  3
 17 18  1  0
 18 19  2  0
  1  2  2  0
  2  5  1  0
  5  6  2  0
  6  4  1  0
  4  3  2  0
  3  1  1  0
M  END
$$$$
