No_4498-complexes_sdf/6BKW-FPZ/2024-09-17-14-21-01/
     RDKit          3D

 22 23  0  0  0  0  0  0  0  0999 V2000
   -7.9040    3.9820   27.1177 C   0  0  0  0  0  0  0  0  0  0  0  0
   -8.2057    2.8231   26.8733 C   0  0  0  0  0  0  0  0  0  0  0  0
   -9.2962    2.4021   26.1155 C   0  0  0  0  0  0  0  0  0  0  0  0
   -8.7358    5.0662   26.5917 C   0  0  0  0  0  0  0  0  0  0  0  0
   -9.7618    4.7023   25.7546 C   0  0  0  0  0  0  0  0  0  0  0  0
  -10.0066    3.4105   25.4922 C   0  0  0  0  0  0  0  0  0  0  0  0
   -8.3943    6.4760   26.8801 C   0  0  0  0  0  0  0  0  0  0  0  0
   -8.0394    6.8605   28.0789 N   0  0  0  0  0  0  0  0  0  0  0  0
   -8.3305    7.3748   25.9292 N   0  0  0  0  0  0  0  0  0  0  0  0
   -7.3592    1.6789   27.4987 C   0  0  0  0  0  0  0  0  0  0  0  0
   -7.8140    0.4899   27.4948 O   0  0  0  0  0  0  0  0  0  0  0  0
   -6.0533    1.9002   27.8329 N   0  0  0  0  0  0  0  0  0  0  0  0
   -5.1526    0.9188   28.3312 C   0  0  0  0  0  0  0  0  0  0  0  0
   -5.4134    0.0004   28.8029 C   0  0  0  0  0  0  0  0  0  0  0  0
   -4.4095   -0.8852   29.4628 C   0  0  0  0  0  0  0  0  0  0  0  0
   -3.1092   -0.4277   29.4638 C   0  0  0  0  0  0  0  0  0  0  0  0
   -2.8115    0.7630   28.7976 C   0  0  0  0  0  0  0  0  0  0  0  0
   -3.7835    1.4754   28.2224 C   0  0  0  0  0  0  0  0  0  0  0  0
   -2.0480   -1.2494   30.1040 C   0  0  0  0  0  0  0  0  0  0  0  0
   -2.1492   -1.3852   31.3520 O   0  0  0  0  0  0  0  0  0  0  0  0
   -1.2505   -1.9892   29.3436 N   0  0  0  0  0  0  0  0  0  0  0  0
   -0.5059   -2.7806   29.6975 C   0  0  0  0  0  0  0  0  0  0  0  0
  4  7  1  0
  7  8  2  0
  7  9  1  0
  2 10  1  0
 10 11  2  0
 10 12  1  0
 12 13  1  0
 16 19  1  0
 19 20  2  0
 19 21  1  0
 21 22  1  0
 13 14  2  0
 14 15  1  0
 15 16  2  0
 16 17  1  0
 17 18  2  0
 18 13  1  0
  1  2  2  0
  2  3  1  0
  3  6  2  0
  6  5  1  0
  5  4  2  0
  4  1  1  0
M  END
$$$$
