No_4975-complexes_sdf/6BKW-FPZ/2024-09-17-14-21-01/
     RDKit          3D

 18 20  0  0  0  0  0  0  0  0999 V2000
   -7.7129    4.2099   27.0854 C   0  0  0  0  0  0  0  0  0  0  0  0
   -7.7814    5.1722   27.8972 C   0  0  0  0  0  0  0  0  0  0  0  0
   -8.8776    3.8408   26.3416 C   0  0  0  0  0  0  0  0  0  0  0  0
   -9.9844    4.6492   26.4743 C   0  0  0  0  0  0  0  0  0  0  0  0
   -8.8033    6.1375   27.8728 C   0  0  0  0  0  0  0  0  0  0  0  0
   -9.9554    5.8280   27.1737 C   0  0  0  0  0  0  0  0  0  0  0  0
   -8.8740    2.6184   25.5584 C   0  0  0  0  0  0  0  0  0  0  0  0
   -8.2513    1.5373   26.0855 N   0  0  0  0  0  0  0  0  0  0  0  0
   -7.7161    1.5499   27.2323 C   0  0  0  0  0  0  0  0  0  0  0  0
   -7.0162    2.8245   27.5861 C   0  0  0  0  0  0  0  0  0  0  0  0
   -8.4624    0.2715   25.3792 C   0  0  0  0  0  0  0  0  0  0  0  0
   -9.6016   -0.3907   25.6350 C   0  0  0  0  0  0  0  0  0  0  0  0
  -10.4785   -0.0854   26.5063 C   0  0  0  0  0  0  0  0  0  0  0  0
  -11.6591   -0.8407   26.8401 C   0  0  0  0  0  0  0  0  0  0  0  0
   -9.9451   -1.5351   24.8347 C   0  0  0  0  0  0  0  0  0  0  0  0
  -11.0956   -2.2660   25.0364 C   0  0  0  0  0  0  0  0  0  0  0  0
  -11.9258   -1.9052   26.0994 C   0  0  0  0  0  0  0  0  0  0  0  0
   -7.4735   -0.0031   24.6803 O   0  0  0  0  0  0  0  0  0  0  0  0
  3  7  1  0
  7  8  1  0
  8  9  1  0
  1 10  1  0
  9 10  1  0
  8 11  1  0
 11 12  1  0
 11 18  2  0
 12 13  2  0
 13 14  1  0
 14 17  2  0
 17 16  1  0
 16 15  2  0
 15 12  1  0
  1  2  2  0
  2  5  1  0
  5  6  2  0
  6  4  1  0
  4  3  2  0
  3  1  1  0
M  END
$$$$
