No_4791-complexes_sdf/6BKW-FPZ/2024-09-17-14-21-01/
     RDKit          3D

 16 17  0  0  0  0  0  0  0  0999 V2000
   -7.7129    4.2099   27.0854 C   0  0  0  0  0  0  0  0  0  0  0  0
   -8.2112    3.0637   26.9225 C   0  0  0  0  0  0  0  0  0  0  0  0
   -8.5108    5.3904   26.9436 C   0  0  0  0  0  0  0  0  0  0  0  0
   -9.7256    5.1955   26.3518 C   0  0  0  0  0  0  0  0  0  0  0  0
   -9.4995    2.8258   26.4878 C   0  0  0  0  0  0  0  0  0  0  0  0
  -10.2542    3.9691   26.2055 C   0  0  0  0  0  0  0  0  0  0  0  0
   -7.9456    6.5695   27.1656 F   0  0  0  0  0  0  0  0  0  0  0  0
   -7.3632    1.8215   27.2517 C   0  0  0  0  0  0  0  0  0  0  0  0
   -6.0601    2.0021   27.7295 C   0  0  0  0  0  0  0  0  0  0  0  0
   -5.2596    0.8435   28.0589 C   0  0  0  0  0  0  0  0  0  0  0  0
   -5.7750   -0.4091   27.9325 C   0  0  0  0  0  0  0  0  0  0  0  0
   -7.8091    0.5198   27.1543 C   0  0  0  0  0  0  0  0  0  0  0  0
   -7.0980   -0.5365   27.5293 C   0  0  0  0  0  0  0  0  0  0  0  0
   -3.8747    1.0919   28.5391 C   0  0  0  0  0  0  0  0  0  0  0  0
   -3.1210    0.2988   28.4575 O   0  0  0  0  0  0  0  0  0  0  0  0
   -3.7186    2.2699   29.2064 O   0  0  0  0  0  0  0  0  0  0  0  0
  3  7  1  0
  2  8  1  0
 10 14  1  0
 14 15  2  0
 14 16  1  0
  1  2  2  0
  2  5  1  0
  5  6  2  0
  6  4  1  0
  4  3  2  0
  3  1  1  0
  8  9  2  0
  9 10  1  0
 10 11  2  0
 11 13  1  0
 13 12  2  0
 12  8  1  0
M  END
$$$$
