No_4930-complexes_sdf/6BKW-FPZ/2024-09-17-14-21-01/
     RDKit          3D

 20 21  0  0  0  0  0  0  0  0999 V2000
   -7.9040    3.9820   27.1177 C   0  0  0  0  0  0  0  0  0  0  0  0
   -7.8663    4.8694   27.9238 C   0  0  1  0  0  0  0  0  0  0  0  0
   -7.4698    2.6989   27.4277 C   0  0  0  0  0  0  0  0  0  0  0  0
   -7.9683    1.5964   26.8266 C   0  0  0  0  0  0  0  0  0  0  0  0
   -8.9447    1.7923   25.8533 C   0  0  0  0  0  0  0  0  0  0  0  0
   -9.4405    2.9988   25.5757 C   0  0  0  0  0  0  0  0  0  0  0  0
   -8.9424    4.1117   26.2388 C   0  0  0  0  0  0  0  0  0  0  0  0
   -7.0149    5.0235   28.9341 N   0  0  0  0  0  0  0  0  0  0  0  0
   -8.5914    6.2200   27.7262 C   0  0  0  0  0  0  0  0  0  0  0  0
  -10.4326    2.9159   24.4956 C   0  0  0  0  0  0  0  0  0  0  0  0
  -10.4005    2.2050   23.4684 C   0  0  0  0  0  0  0  0  0  0  0  0
  -11.2773    2.3144   22.4183 C   0  0  0  0  0  0  0  0  0  0  0  0
  -12.1756    3.3607   22.3676 C   0  0  0  0  0  0  0  0  0  0  0  0
  -12.1847    4.2725   23.3966 C   0  0  0  0  0  0  0  0  0  0  0  0
  -11.3038    4.2109   24.4384 C   0  0  0  0  0  0  0  0  0  0  0  0
   -7.3002    0.0261   27.1162 Cl  0  0  0  0  0  0  0  0  0  0  0  0
   -8.5429    6.9004   26.5026 C   0  0  0  0  0  0  0  0  0  0  0  0
   -8.8244    8.1627   26.7015 F   0  0  0  0  0  0  0  0  0  0  0  0
   -7.2834    6.8829   26.0414 F   0  0  0  0  0  0  0  0  0  0  0  0
   -9.3068    6.4436   25.5307 F   0  0  0  0  0  0  0  0  0  0  0  0
  2  8  1  6
  2  9  1  0
  6 10  1  0
  4 16  1  0
  9 17  1  0
 17 18  1  0
 17 19  1  0
 17 20  1  0
  2  1  1  0
 10 11  2  0
 11 12  1  0
 12 13  2  0
 13 14  1  0
 14 15  2  0
 15 10  1  0
  1  3  2  0
  3  4  1  0
  4  5  2  0
  5  6  1  0
  6  7  2  0
  7  1  1  0
M  END
$$$$
