No_4905-complexes_sdf/6BKW-FPZ/2024-09-17-14-21-01/
     RDKit          3D

 19 21  0  0  0  0  0  0  0  0999 V2000
   -7.9040    3.9820   27.1177 C   0  0  0  0  0  0  0  0  0  0  0  0
   -9.0711    4.3164   27.0630 C   0  0  0  0  0  0  0  0  0  0  0  0
   -9.8698    3.9665   25.9495 C   0  0  0  0  0  0  0  0  0  0  0  0
   -7.4046    2.7946   26.4568 C   0  0  0  0  0  0  0  0  0  0  0  0
   -8.3645    2.1023   25.7152 C   0  0  0  0  0  0  0  0  0  0  0  0
   -9.5483    2.7427   25.4386 C   0  0  0  0  0  0  0  0  0  0  0  0
   -6.9803    4.5584   28.0577 N   0  0  0  0  0  0  0  0  0  0  0  0
  -10.4477    2.1591   24.4117 C   0  0  0  0  0  0  0  0  0  0  0  0
   -9.8862    1.6640   23.3170 C   0  0  0  0  0  0  0  0  0  0  0  0
  -10.6430    1.0944   22.2101 C   0  0  0  0  0  0  0  0  0  0  0  0
  -11.9892    1.1370   22.3037 C   0  0  0  0  0  0  0  0  0  0  0  0
  -11.7269    2.2298   24.1082 C   0  0  0  0  0  0  0  0  0  0  0  0
  -12.5541    1.7580   23.2597 C   0  0  0  0  0  0  0  0  0  0  0  0
   -7.5131    5.7335   28.6057 C   0  0  0  0  0  0  0  0  0  0  0  0
   -9.3610    5.6820   27.5744 C   0  0  0  0  0  0  0  0  0  0  0  0
   -8.6453    6.2417   28.3992 N   0  0  0  0  0  0  0  0  0  0  0  0
  -12.7394    0.5168   21.1210 C   0  0  0  0  0  0  0  0  0  0  0  0
  -12.1753    0.0095   20.1381 C   0  0  0  0  0  0  0  0  0  0  0  0
  -10.6664   -0.0685   20.0788 C   0  0  0  0  0  0  0  0  0  0  0  0
  6  8  1  0
 11 17  1  0
 17 18  2  3
 18 19  1  0
  2  3  2  0
  3  6  1  0
  6  5  2  0
  5  4  1  0
  4  1  2  0
  8  9  2  0
  9 10  1  0
 10 11  2  0
 11 13  1  0
 13 12  2  0
 12  8  1  0
  1  2  1  0
  2 15  1  0
 15 16  2  0
 16 14  1  0
 14  7  2  0
  7  1  1  0
M  END
$$$$
