No_4026-complexes_sdf/6BKW-FPZ/2024-09-17-14-21-01/
     RDKit          3D

 33 36  0  0  0  0  0  0  0  0999 V2000
   -7.2496    3.8871   27.4508 C   0  0  0  0  0  0  0  0  0  0  0  0
   -7.9379    4.9063   27.8518 C   0  0  0  0  0  0  0  0  0  0  0  0
   -9.3376    4.8647   27.7795 C   0  0  0  0  0  0  0  0  0  0  0  0
   -7.8544    2.6294   27.0414 C   0  0  0  0  0  0  0  0  0  0  0  0
   -9.2852    2.6570   27.0666 C   0  0  0  0  0  0  0  0  0  0  0  0
  -10.0126    3.7528   27.4890 C   0  0  0  0  0  0  0  0  0  0  0  0
  -11.7310    3.6749   27.5248 Cl  0  0  0  0  0  0  0  0  0  0  0  0
   -6.9404    1.5815   26.7717 C   0  0  0  0  0  0  0  0  0  0  0  0
   -7.3642    0.5988   26.0578 N   0  0  0  0  0  0  0  0  0  0  0  0
   -5.7454    1.5811   27.2770 O   0  0  0  0  0  0  0  0  0  0  0  0
   -6.7107   -0.6156   25.8914 C   0  0  0  0  0  0  0  0  0  0  0  0
   -7.4800    6.2668   28.2915 C   0  0  0  0  0  0  0  0  0  0  0  0
   -6.8149   -1.1340   24.6568 C   0  0  2  0  0  0  0  0  0  0  0  0
   -7.6199   -0.4387   23.7778 C   0  0  0  0  0  0  0  0  0  0  0  0
   -8.5030    0.5267   24.0906 C   0  0  1  0  0  0  0  0  0  0  0  0
   -8.0102    1.3600   25.0272 C   0  0  0  0  0  0  0  0  0  0  0  0
   -9.4774    0.9914   23.0784 C   0  0  0  0  0  0  0  0  0  0  0  0
   -9.7238    0.2793   21.9492 C   0  0  0  0  0  0  0  0  0  0  0  0
  -10.7486    0.6450   21.0913 C   0  0  0  0  0  0  0  0  0  0  0  0
  -11.4507    1.8155   21.3429 C   0  0  0  0  0  0  0  0  0  0  0  0
  -11.2167    2.5628   22.4699 C   0  0  0  0  0  0  0  0  0  0  0  0
  -10.3052    2.1694   23.3933 C   0  0  0  0  0  0  0  0  0  0  0  0
   -6.2000   -2.4014   24.3321 C   0  0  0  0  0  0  0  0  0  0  0  0
   -6.0644   -2.8117   23.1419 N   0  0  0  0  0  0  0  0  0  0  0  0
   -5.5027   -3.9163   22.7269 C   0  0  0  0  0  0  0  0  0  0  0  0
   -5.3412   -2.8675   25.1614 O   0  0  0  0  0  0  0  0  0  0  0  0
   -6.4906   -4.8965   22.3863 C   0  0  0  0  0  0  0  0  0  0  0  0
   -6.5153   -5.4148   21.3979 C   0  0  0  0  0  0  0  0  0  0  0  0
   -5.5769   -5.0618   20.3242 C   0  0  0  0  0  0  0  0  0  0  0  0
   -5.6328   -5.5827   19.0571 C   0  0  0  0  0  0  0  0  0  0  0  0
   -6.6381   -6.4980   18.7894 C   0  0  0  0  0  0  0  0  0  0  0  0
   -7.5412   -6.8884   19.6761 C   0  0  0  0  0  0  0  0  0  0  0  0
   -7.4978   -6.3370   20.9113 C   0  0  0  0  0  0  0  0  0  0  0  0
  6  7  1  0
  4  8  1  0
  8  9  1  0
  8 10  2  0
  9 11  1  0
  2 12  1  0
 11 13  1  0
 13 14  1  0
  9 16  1  0
 15 16  1  0
 15 17  1  6
 13 23  1  1
 23 24  1  0
 24 25  1  0
 23 26  2  0
 25 27  1  0
 27 28  1  0
 14 15  1  0
 17 18  2  0
 18 19  1  0
 19 20  2  0
 20 21  1  0
 21 22  2  0
 22 17  1  0
 28 29  2  0
 29 30  1  0
 30 31  2  0
 31 32  1  0
 32 33  2  0
 33 28  1  0
  1  2  2  0
  2  3  1  0
  3  6  2  0
  6  5  1  0
  5  4  2  0
  4  1  1  0
M  END
$$$$
