No_4353-complexes_sdf/6BKW-FPZ/2024-09-17-14-21-01/
     RDKit          3D

 21 24  0  0  0  0  0  0  0  0999 V2000
   -7.7129    4.2099   27.0854 C   0  0  0  0  0  0  0  0  0  0  0  0
   -7.7814    5.1722   27.8972 C   0  0  0  0  0  0  0  0  0  0  0  0
   -7.3155    2.9699   27.6145 C   0  0  0  0  0  0  0  0  0  0  0  0
   -7.6814    1.8188   26.9581 C   0  0  0  0  0  0  0  0  0  0  0  0
   -8.6377    1.9131   25.9324 C   0  0  0  0  0  0  0  0  0  0  0  0
   -9.1866    3.0673   25.6037 C   0  0  0  0  0  0  0  0  0  0  0  0
   -8.8394    4.1752   26.2513 C   0  0  0  0  0  0  0  0  0  0  0  0
   -8.2486    6.4747   27.5719 N   0  0  0  0  0  0  0  0  0  0  0  0
   -9.0953    6.6391   26.5260 C   0  0  0  0  0  0  0  0  0  0  0  0
   -9.4505    5.4775   25.8556 C   0  0  0  0  0  0  0  0  0  0  0  0
   -7.0296    0.5294   27.2729 C   0  0  0  0  0  0  0  0  0  0  0  0
   -7.6525   -0.6928   27.1319 C   0  0  0  0  0  0  0  0  0  0  0  0
   -9.0383   -0.6289   26.7809 C   0  0  0  0  0  0  0  0  0  0  0  0
   -9.4575    0.5309   25.9233 C   0  0  0  0  0  0  0  0  0  0  0  0
  -10.6774    0.5187   25.2268 C   0  0  0  0  0  0  0  0  0  0  0  0
  -10.6942    0.8897   24.0909 C   0  0  0  0  0  0  0  0  0  0  0  0
  -11.8877    0.8293   23.2116 C   0  0  0  0  0  0  0  0  0  0  0  0
  -11.8239    1.3136   21.9302 C   0  0  0  0  0  0  0  0  0  0  0  0
  -10.6524    1.9256   21.3683 C   0  0  0  0  0  0  0  0  0  0  0  0
   -9.5285    2.0109   22.1353 C   0  0  0  0  0  0  0  0  0  0  0  0
   -9.5009    1.5771   23.3587 C   0  0  0  0  0  0  0  0  0  0  0  0
 14 15  1  0
 15 16  1  0
  5 14  1  0
 14 13  2  0
 13 12  1  0
 12 11  2  0
 11  4  1  0
  1  2  2  0
  2  8  1  0
  8  9  2  0
  9 10  1  0
 10  7  2  0
 16 17  2  0
 17 18  1  0
 18 19  2  0
 19 20  1  0
 20 21  2  0
 21 16  1  0
  1  3  1  0
  3  4  2  0
  4  5  1  0
  5  6  2  0
  6  7  1  0
  7  1  1  0
M  END
$$$$
