No_4190-complexes_sdf/6BKW-FPZ/2024-09-17-14-21-01/
     RDKit          3D

 32 35  0  0  0  0  0  0  0  0999 V2000
   -7.7129    4.2099   27.0854 C   0  0  0  0  0  0  0  0  0  0  0  0
   -8.2112    3.0637   26.9225 C   0  0  0  0  0  0  0  0  0  0  0  0
   -8.5108    5.3904   26.9436 C   0  0  0  0  0  0  0  0  0  0  0  0
   -7.9752    6.6981   27.2112 C   0  0  0  0  0  0  0  0  0  0  0  0
   -9.5213    2.8208   26.4688 C   0  0  0  0  0  0  0  0  0  0  0  0
  -10.2979    3.9327   26.2378 C   0  0  0  0  0  0  0  0  0  0  0  0
   -9.7894    5.2123   26.4395 C   0  0  0  0  0  0  0  0  0  0  0  0
   -7.3384    1.8199   27.1767 C   0  0  0  0  0  0  0  0  0  0  0  0
   -6.1469    2.0001   27.7309 N   0  0  0  0  0  0  0  0  0  0  0  0
   -5.2930    0.8551   27.9635 C   0  0  0  0  0  0  0  0  0  0  0  0
   -5.8417   -0.3460   27.7394 C   0  0  0  0  0  0  0  0  0  0  0  0
   -7.6876    0.4878   27.0214 C   0  0  0  0  0  0  0  0  0  0  0  0
   -7.0312   -0.5261   27.3164 C   0  0  0  0  0  0  0  0  0  0  0  0
   -4.0528    1.2095   28.4790 N   0  0  0  0  0  0  0  0  0  0  0  0
   -8.0734    7.8124   26.7180 N   0  0  0  0  0  0  0  0  0  0  0  0
   -6.9375    6.6471   28.1568 O   0  0  0  0  0  0  0  0  0  0  0  0
  -11.6224    3.6148   25.7973 C   0  0  0  0  0  0  0  0  0  0  0  0
  -12.2196    4.3063   25.1504 C   0  0  0  0  0  0  0  0  0  0  0  0
  -13.6330    4.1232   24.6107 C   0  0  0  0  0  0  0  0  0  0  0  0
  -14.2004    2.9740   24.9964 C   0  0  0  0  0  0  0  0  0  0  0  0
  -13.5132    2.1311   25.8055 C   0  0  0  0  0  0  0  0  0  0  0  0
  -12.2574    2.4130   26.2518 C   0  0  0  0  0  0  0  0  0  0  0  0
   -3.2249    0.1914   28.8926 C   0  0  0  0  0  0  0  0  0  0  0  0
   -3.6183   -1.0949   28.8061 C   0  0  0  0  0  0  0  0  0  0  0  0
   -4.8869   -1.4027   28.2849 C   0  0  0  0  0  0  0  0  0  0  0  0
   -2.7419   -2.1682   29.2278 C   0  0  0  0  0  0  0  0  0  0  0  0
   -2.9896   -2.7744   30.3077 C   0  0  0  0  0  0  0  0  0  0  0  0
   -3.7842   -2.3591   31.2501 C   0  0  0  0  0  0  0  0  0  0  0  0
   -4.1121   -2.4798   32.2856 C   0  0  0  0  0  0  0  0  0  0  0  0
   -5.1284   -1.7559   33.1693 C   0  0  0  0  0  0  0  0  0  0  0  0
   -5.7319   -0.6705   32.4853 C   0  0  0  0  0  0  0  0  0  0  0  0
   -5.1120   -0.3565   31.3745 C   0  0  0  0  0  0  0  0  0  0  0  0
  3  4  1  0
  2  8  1  0
  4 15  2  0
  4 16  1  0
  6 17  1  0
 24 26  1  0
 26 27  1  0
 27 28  2  3
 28 29  1  0
 29 30  2  3
 30 31  1  0
 31 32  2  0
 11 25  2  0
 25 24  1  0
 24 23  2  0
 23 14  1  0
 14 10  2  0
 17 18  2  0
 18 19  1  0
 19 20  2  0
 20 21  1  0
 21 22  2  0
 22 17  1  0
  1  2  2  0
  2  5  1  0
  5  6  2  0
  6  7  1  0
  7  3  2  0
  3  1  1  0
  8  9  2  0
  9 10  1  0
 10 11  1  0
 11 13  1  0
 13 12  2  0
 12  8  1  0
M  END
$$$$
