No_4050-complexes_sdf/6BKW-FPZ/2024-09-17-14-21-01/
     RDKit          3D

 12 13  0  0  0  0  0  0  0  0999 V2000
   -7.9040    3.9820   27.1177 C   0  0  0  0  0  0  0  0  0  0  0  0
   -9.0711    4.3164   27.0630 C   0  0  0  0  0  0  0  0  0  0  0  0
   -9.5294    5.4517   27.7215 C   0  0  0  0  0  0  0  0  0  0  0  0
   -6.9328    4.7309   27.8881 C   0  0  0  0  0  0  0  0  0  0  0  0
   -7.3377    5.8421   28.5537 C   0  0  0  0  0  0  0  0  0  0  0  0
   -8.6411    6.2609   28.3972 C   0  0  0  0  0  0  0  0  0  0  0  0
   -9.8880    3.3985   26.1998 C   0  0  0  0  0  0  0  0  0  0  0  0
  -10.4095    3.9483   25.1407 C   0  0  0  0  0  0  0  0  0  0  0  0
  -11.0354    3.2827   24.0615 C   0  0  0  0  0  0  0  0  0  0  0  0
  -11.0803    1.9324   24.1811 C   0  0  0  0  0  0  0  0  0  0  0  0
   -9.8545    2.0340   26.1863 C   0  0  0  0  0  0  0  0  0  0  0  0
  -10.4506    1.2558   25.2468 C   0  0  0  0  0  0  0  0  0  0  0  0
  2  7  1  0
  7  8  2  0
  8  9  1  0
  9 10  2  0
 10 12  1  0
 12 11  2  0
 11  7  1  0
  1  2  2  0
  2  3  1  0
  3  6  2  0
  6  5  1  0
  5  4  2  0
  4  1  1  0
M  END
$$$$
