No_439-complexes_sdf/6BKW-FPZ/2024-09-17-14-21-01/
     RDKit          3D

 33 36  0  0  0  0  0  0  0  0999 V2000
   -7.9040    3.9820   27.1177 C   0  0  0  0  0  0  0  0  0  0  0  0
   -7.8663    4.8694   27.9238 C   0  0  0  0  0  0  0  0  0  0  0  0
   -9.0491    3.8523   26.2542 C   0  0  0  0  0  0  0  0  0  0  0  0
   -8.7661    5.9491   27.9690 C   0  0  0  0  0  0  0  0  0  0  0  0
   -9.9295    4.8502   26.2323 C   0  0  0  0  0  0  0  0  0  0  0  0
   -9.8077    5.9288   27.0933 C   0  0  0  0  0  0  0  0  0  0  0  0
   -7.0146    2.9513   27.1368 F   0  0  0  0  0  0  0  0  0  0  0  0
   -9.1015    2.7190   25.2776 C   0  0  0  0  0  0  0  0  0  0  0  0
  -10.0379    2.8545   24.3050 N   0  0  0  0  0  0  0  0  0  0  0  0
  -10.7213    3.9147   24.1313 C   0  0  0  0  0  0  0  0  0  0  0  0
  -10.8346    4.8742   25.1288 N   0  0  0  0  0  0  0  0  0  0  0  0
  -11.7369    3.9100   23.2247 N   0  0  0  0  0  0  0  0  0  0  0  0
  -11.4021    3.9155   21.9093 C   0  0  0  0  0  0  0  0  0  0  0  0
  -11.1404    2.6828   21.3612 C   0  0  2  0  0  0  0  0  0  0  0  0
  -10.0108    2.2172   21.6160 C   0  0  0  0  0  0  0  0  0  0  0  0
   -9.8158    0.8740   21.8713 C   0  0  0  0  0  0  0  0  0  0  0  0
   -9.4543   -0.0036   20.9381 C   0  0  0  0  0  0  0  0  0  0  0  0
   -9.2374   -1.4376   21.2049 C   0  0  0  0  0  0  0  0  0  0  0  0
   -8.9566   -2.2956   20.2040 C   0  0  0  0  0  0  0  0  0  0  0  0
   -8.2600   -3.4522   20.3920 C   0  0  0  0  0  0  0  0  0  0  0  0
   -7.6224   -3.5187   21.2271 C   0  0  0  0  0  0  0  0  0  0  0  0
   -7.6231   -2.7555   22.4681 C   0  0  0  0  0  0  0  0  0  0  0  0
   -8.3097   -1.5507   22.3281 C   0  0  0  0  0  0  0  0  0  0  0  0
   -9.5965   -2.0737   19.0106 F   0  0  0  0  0  0  0  0  0  0  0  0
  -13.1026    4.0517   23.5568 C   0  0  0  0  0  0  0  0  0  0  0  0
  -13.8954    2.9048   23.4493 C   0  0  0  0  0  0  0  0  0  0  0  0
  -14.3838    2.4331   24.2231 C   0  0  0  0  0  0  0  0  0  0  0  0
  -14.8243    3.1537   25.5155 C   0  0  0  0  0  0  0  0  0  0  0  0
  -14.2711    4.4578   25.5922 C   0  0  0  0  0  0  0  0  0  0  0  0
  -13.3007    4.8610   24.6957 C   0  0  0  0  0  0  0  0  0  0  0  0
  -12.0293    2.1362   20.4242 C   0  0  0  0  0  0  0  0  0  0  0  0
  -12.7984    1.0698   20.6032 C   0  0  0  0  0  0  0  0  0  0  0  0
  -13.5852    0.5582   19.7961 C   0  0  0  0  0  0  0  0  0  0  0  0
  1  7  1  0
 10 12  1  0
 12 13  1  0
 14 13  1  6
 14 15  1  0
 15 16  2  3
 16 17  1  0
 19 24  1  0
 12 25  1  0
 14 31  1  0
 31 32  2  3
 32 33  1  0
 17 18  1  0
 18 19  2  0
 19 20  1  0
 20 21  2  0
 21 22  1  0
 22 23  2  0
 23 18  1  0
 25 26  2  0
 26 27  1  0
 27 28  2  0
 28 29  1  0
 29 30  2  0
 30 25  1  0
  1  2  2  0
  2  4  1  0
  4  6  2  0
  6  5  1  0
  3  1  1  0
  3  5  2  0
  5 11  1  0
 11 10  2  0
 10  9  1  0
  9  8  2  0
  8  3  1  0
M  END
$$$$
