No_4980-complexes_sdf/6BKW-FPZ/2024-09-17-14-21-01/
     RDKit          3D

 21 23  0  0  0  0  0  0  0  0999 V2000
   -7.9040    3.9820   27.1177 C   0  0  0  0  0  0  0  0  0  0  0  0
   -9.0711    4.3164   27.0630 C   0  0  0  0  0  0  0  0  0  0  0  0
  -10.0395    3.8218   27.1938 C   0  0  0  0  0  0  0  0  0  0  0  0
   -7.6424    2.5858   27.3610 C   0  0  0  0  0  0  0  0  0  0  0  0
   -8.7741    1.7889   27.4566 C   0  0  0  0  0  0  0  0  0  0  0  0
  -10.0155    2.3581   27.4300 C   0  0  0  0  0  0  0  0  0  0  0  0
  -11.2141    1.4842   27.6314 C   0  0  0  0  0  0  0  0  0  0  0  0
  -11.9763    1.0748   26.6406 C   0  0  0  0  0  0  0  0  0  0  0  0
  -13.0403    0.2962   26.9140 C   0  0  0  0  0  0  0  0  0  0  0  0
  -13.4142   -0.0261   28.2834 C   0  0  0  0  0  0  0  0  0  0  0  0
  -12.6487    0.4469   29.3040 C   0  0  0  0  0  0  0  0  0  0  0  0
  -11.5371    1.2648   29.1034 C   0  0  0  0  0  0  0  0  0  0  0  0
   -8.8708    5.9583   26.7656 C   0  0  0  0  0  0  0  0  0  0  0  0
   -9.3408    6.2978   25.6535 F   0  0  0  0  0  0  0  0  0  0  0  0
   -7.6203    6.4075   26.9281 F   0  0  0  0  0  0  0  0  0  0  0  0
   -9.7195    6.6626   27.6758 F   0  0  0  0  0  0  0  0  0  0  0  0
   -6.3864    2.0244   27.4068 N   0  0  0  0  0  0  0  0  0  0  0  0
   -5.2950    2.4712   28.1852 C   0  0  0  0  0  0  0  0  0  0  0  0
   -6.2263    0.7436   26.8447 C   0  0  0  0  0  0  0  0  0  0  0  0
   -5.0313    0.0531   27.3230 C   0  0  0  0  0  0  0  0  0  0  0  0
   -4.3338    1.1176   28.0699 C   0  0  0  0  0  0  0  0  0  0  0  0
  6  7  1  0
  2 13  1  0
 13 14  1  0
 13 15  1  0
 13 16  1  0
  4 17  1  0
 17 18  1  0
 17 19  1  0
 19 20  2  0
 18 21  2  0
 20 21  1  0
  1  2  2  0
  2  3  1  0
  3  6  2  0
  6  5  1  0
  5  4  2  0
  4  1  1  0
  7  8  2  0
  8  9  1  0
  9 10  2  0
 10 11  1  0
 11 12  2  0
 12  7  1  0
M  END
$$$$
