No_4048-complexes_sdf/6BKW-FPZ/2024-09-17-14-21-01/
     RDKit          3D

 33 36  0  0  0  0  0  0  0  0999 V2000
   -7.2496    3.8871   27.4508 C   0  0  0  0  0  0  0  0  0  0  0  0
   -8.5096    4.0291   27.2770 C   0  0  0  0  0  0  0  0  0  0  0  0
   -9.2677    5.1714   27.5773 C   0  0  0  0  0  0  0  0  0  0  0  0
   -6.5550    4.9883   28.1029 C   0  0  0  0  0  0  0  0  0  0  0  0
  -10.6647    5.2183   27.4133 C   0  0  0  0  0  0  0  0  0  0  0  0
   -7.2972    6.1043   28.4461 C   0  0  0  0  0  0  0  0  0  0  0  0
   -8.5845    6.2065   28.1527 C   0  0  0  0  0  0  0  0  0  0  0  0
   -9.2724    2.8644   26.6894 C   0  0  0  0  0  0  0  0  0  0  0  0
   -9.6780    1.9500   27.5664 C   0  0  0  0  0  0  0  0  0  0  0  0
   -9.4141    2.7560   25.3315 C   0  0  0  0  0  0  0  0  0  0  0  0
   -9.7005    1.5494   24.7318 C   0  0  0  0  0  0  0  0  0  0  0  0
  -10.1983    0.7224   27.0375 C   0  0  0  0  0  0  0  0  0  0  0  0
  -10.2537    0.5584   25.6550 C   0  0  0  0  0  0  0  0  0  0  0  0
   -9.8261    1.3901   23.3116 C   0  0  0  0  0  0  0  0  0  0  0  0
   -8.8237    0.6933   22.8648 F   0  0  0  0  0  0  0  0  0  0  0  0
   -9.6586    2.6000   22.6475 F   0  0  0  0  0  0  0  0  0  0  0  0
  -10.9475    0.8134   22.8637 F   0  0  0  0  0  0  0  0  0  0  0  0
  -10.6695   -0.3552   27.8631 C   0  0  0  0  0  0  0  0  0  0  0  0
  -11.5274   -0.2216   28.6232 O   0  0  0  0  0  0  0  0  0  0  0  0
  -10.0793   -1.5123   27.6813 O   0  0  0  0  0  0  0  0  0  0  0  0
  -10.0314   -2.4271   28.2973 C   0  0  0  0  0  0  0  0  0  0  0  0
   -8.8902   -2.8818   28.9223 C   0  0  0  0  0  0  0  0  0  0  0  0
   -8.9186   -3.5389   30.0898 C   0  0  0  0  0  0  0  0  0  0  0  0
  -10.1773   -4.1174   30.5208 C   0  0  0  0  0  0  0  0  0  0  0  0
  -11.3238   -3.6944   29.9109 C   0  0  0  0  0  0  0  0  0  0  0  0
  -11.2816   -2.7710   28.9027 C   0  0  0  0  0  0  0  0  0  0  0  0
   -7.5860   -2.3209   28.5548 C   0  0  0  0  0  0  0  0  0  0  0  0
   -6.5650   -2.1960   29.2777 C   0  0  0  0  0  0  0  0  0  0  0  0
   -5.3247   -1.6140   28.8864 C   0  0  0  0  0  0  0  0  0  0  0  0
   -5.2463   -1.0127   27.6045 C   0  0  0  0  0  0  0  0  0  0  0  0
   -6.3934   -1.0241   26.7933 C   0  0  0  0  0  0  0  0  0  0  0  0
   -7.5403   -1.6399   27.2618 C   0  0  0  0  0  0  0  0  0  0  0  0
   -3.8398   -0.1712   27.1706 Cl  0  0  0  0  0  0  0  0  0  0  0  0
  3  5  1  0
  2  8  1  0
 11 14  1  0
 14 15  1  0
 14 16  1  0
 14 17  1  0
 12 18  1  0
 18 19  2  0
 18 20  1  0
 20 21  1  0
 22 27  1  0
 30 33  1  0
 27 28  2  0
 28 29  1  0
 29 30  2  0
 30 31  1  0
 31 32  2  0
 32 27  1  0
 21 22  1  0
 22 23  2  0
 23 24  1  0
 24 25  2  0
 25 26  1  0
 26 21  2  0
  8  9  2  0
  9 12  1  0
 12 13  2  0
 13 11  1  0
 11 10  2  0
 10  8  1  0
  1  2  2  0
  2  3  1  0
  3  7  2  0
  7  6  1  0
  6  4  2  0
  4  1  1  0
M  END
$$$$
