No_4599-complexes_sdf/6BKW-FPZ/2024-09-17-14-21-01/
     RDKit          3D

 16 17  0  0  0  0  0  0  0  0999 V2000
   -7.7129    4.2099   27.0854 C   0  0  0  0  0  0  0  0  0  0  0  0
   -8.9133    4.4736   27.0998 C   0  0  0  0  0  0  0  0  0  0  0  0
   -9.4643    5.5426   27.7628 C   0  0  0  0  0  0  0  0  0  0  0  0
   -6.8373    4.9942   27.9785 C   0  0  0  0  0  0  0  0  0  0  0  0
   -7.3717    6.0428   28.6744 C   0  0  0  0  0  0  0  0  0  0  0  0
   -8.6869    6.3937   28.5345 C   0  0  0  0  0  0  0  0  0  0  0  0
   -9.9418    3.7066   26.3114 C   0  0  0  0  0  0  0  0  0  0  0  0
   -9.4361    2.6888   25.6105 C   0  0  0  0  0  0  0  0  0  0  0  0
  -10.1006    2.1901   24.4445 C   0  0  0  0  0  0  0  0  0  0  0  0
  -10.8913    2.7928   23.9816 C   0  0  0  0  0  0  0  0  0  0  0  0
  -11.4902    4.0305   24.5154 C   0  0  0  0  0  0  0  0  0  0  0  0
  -11.2012    4.1397   26.1933 C   0  0  0  0  0  0  0  0  0  0  0  0
  -11.6455    2.4473   22.6463 C   0  0  0  0  0  0  0  0  0  0  0  0
  -12.1375    3.1049   21.7469 F   0  0  0  0  0  0  0  0  0  0  0  0
  -12.6347    1.5630   23.0461 F   0  0  0  0  0  0  0  0  0  0  0  0
  -10.7088    1.6713   21.9385 F   0  0  0  0  0  0  0  0  0  0  0  0
  2  7  1  0
 10 13  1  0
 13 14  1  0
 13 15  1  0
 13 16  1  0
  1  2  2  0
  2  3  1  0
  3  6  2  0
  6  5  1  0
  5  4  2  0
  4  1  1  0
  7  8  2  0
  8  9  1  0
  9 10  2  0
 10 11  1  0
 11 12  2  0
 12  7  1  0
M  END
$$$$
