No_4287-complexes_sdf/6BKW-FPZ/2024-09-17-14-21-01/
     RDKit          3D

 15 16  0  0  0  0  0  0  0  0999 V2000
   -7.9040    3.9820   27.1177 C   0  0  0  0  0  0  0  0  0  0  0  0
   -9.0711    4.3164   27.0630 C   0  0  0  0  0  0  0  0  0  0  0  0
  -10.0395    3.8218   27.1938 C   0  0  0  0  0  0  0  0  0  0  0  0
   -7.6424    2.5858   27.3610 C   0  0  0  0  0  0  0  0  0  0  0  0
   -8.7741    1.7889   27.4566 C   0  0  0  0  0  0  0  0  0  0  0  0
  -10.0155    2.3581   27.4300 C   0  0  0  0  0  0  0  0  0  0  0  0
   -9.1663    6.1867   26.8580 Cl  0  0  0  0  0  0  0  0  0  0  0  0
   -6.4010    2.0588   27.3902 O   0  0  0  0  0  0  0  0  0  0  0  0
   -5.5084    2.4912   28.3483 C   0  0  0  0  0  0  0  0  0  0  0  0
  -11.2236    1.5156   27.6630 C   0  0  0  0  0  0  0  0  0  0  0  0
  -11.8545    0.9647   26.6215 C   0  0  0  0  0  0  0  0  0  0  0  0
  -12.9103    0.1974   26.8639 C   0  0  0  0  0  0  0  0  0  0  0  0
  -13.4433    0.0471   28.2095 C   0  0  0  0  0  0  0  0  0  0  0  0
  -12.8197    0.6864   29.2428 C   0  0  0  0  0  0  0  0  0  0  0  0
  -11.7087    1.4573   29.0662 C   0  0  0  0  0  0  0  0  0  0  0  0
  2  7  1  0
  4  8  1  0
  8  9  1  0
  6 10  1  0
  1  2  2  0
  2  3  1  0
  3  6  2  0
  6  5  1  0
  5  4  2  0
  4  1  1  0
 10 11  2  0
 11 12  1  0
 12 13  2  0
 13 14  1  0
 14 15  2  0
 15 10  1  0
M  END
$$$$
