No_4402-complexes_sdf/6BKW-FPZ/2024-09-17-14-21-01/
     RDKit          3D

 23 26  0  0  0  0  0  0  0  0999 V2000
   -7.9040    3.9820   27.1177 C   0  0  0  0  0  0  0  0  0  0  0  0
   -9.0711    4.3164   27.0630 C   0  0  0  0  0  0  0  0  0  0  0  0
   -9.5294    5.4517   27.7215 C   0  0  0  0  0  0  0  0  0  0  0  0
   -6.9328    4.7309   27.8881 C   0  0  0  0  0  0  0  0  0  0  0  0
   -7.3666    5.8455   28.5488 C   0  0  0  0  0  0  0  0  0  0  0  0
   -8.6669    6.2428   28.4199 C   0  0  0  0  0  0  0  0  0  0  0  0
  -10.0479    3.5083   26.2510 C   0  0  0  0  0  0  0  0  0  0  0  0
  -10.4851    2.3915   26.4094 C   0  0  0  0  0  0  0  0  0  0  0  0
  -10.0216    1.7601   27.7461 C   0  0  0  0  0  0  0  0  0  0  0  0
  -10.4623    0.3921   28.1012 C   0  0  0  0  0  0  0  0  0  0  0  0
  -11.1548   -0.2872   27.1440 C   0  0  0  0  0  0  0  0  0  0  0  0
  -11.3989    0.1960   26.1750 C   0  0  0  0  0  0  0  0  0  0  0  0
  -11.1162    1.4576   25.6627 C   0  0  0  0  0  0  0  0  0  0  0  0
  -10.4073    4.1973   24.9398 C   0  0  0  0  0  0  0  0  0  0  0  0
   -9.7674    5.0322   24.7385 F   0  0  0  0  0  0  0  0  0  0  0  0
  -11.4536    3.6674   24.2036 C   0  0  0  0  0  0  0  0  0  0  0  0
  -11.6748    2.2232   24.3065 C   0  0  0  0  0  0  0  0  0  0  0  0
  -12.4279    1.5247   23.3793 C   0  0  0  0  0  0  0  0  0  0  0  0
  -12.6689    1.9821   22.3758 C   0  0  0  0  0  0  0  0  0  0  0  0
  -13.4224    1.2958   21.2712 C   0  0  0  0  0  0  0  0  0  0  0  0
  -13.7420    0.0105   21.5339 C   0  0  0  0  0  0  0  0  0  0  0  0
  -13.4200   -0.5707   22.7445 C   0  0  0  0  0  0  0  0  0  0  0  0
  -12.7711    0.1156   23.7012 C   0  0  0  0  0  0  0  0  0  0  0  0
  2  7  1  0
 14 15  1  0
 17 18  1  0
 18 19  2  0
 19 20  1  0
 20 21  2  0
 21 22  1  0
 22 23  2  0
 23 18  1  0
  1  2  2  0
  2  3  1  0
  3  6  2  0
  6  5  1  0
  5  4  2  0
  4  1  1  0
  8  9  2  0
  9 10  1  0
 10 11  2  0
 11 12  1  0
 12 13  2  0
  7  8  1  0
  8 13  1  0
 13 17  1  0
 17 16  2  0
 16 14  1  0
 14  7  2  0
M  END
$$$$
