No_4685-complexes_sdf/6BKW-FPZ/2024-09-17-14-21-01/
     RDKit          3D

 17 19  0  0  0  0  0  0  0  0999 V2000
   -7.2496    3.8871   27.4508 C   0  0  0  0  0  0  0  0  0  0  0  0
   -8.5096    4.0291   27.2770 C   0  0  0  0  0  0  0  0  0  0  0  0
   -9.2669    5.1645   27.5845 C   0  0  0  0  0  0  0  0  0  0  0  0
   -8.4566    6.3212   27.8001 C   0  0  0  0  0  0  0  0  0  0  0  0
   -6.5590    2.5934   27.2169 C   0  0  0  0  0  0  0  0  0  0  0  0
   -7.3469    1.4814   27.0290 C   0  0  0  0  0  0  0  0  0  0  0  0
   -8.6628    1.6034   26.8522 C   0  0  0  0  0  0  0  0  0  0  0  0
   -9.3578    2.8220   27.1151 C   0  0  0  0  0  0  0  0  0  0  0  0
  -10.6408    5.1824   27.7306 C   0  0  0  0  0  0  0  0  0  0  0  0
   -6.6743    0.2240   26.7969 C   0  0  0  0  0  0  0  0  0  0  0  0
   -6.9936   -0.6180   25.9182 C   0  0  0  0  0  0  0  0  0  0  0  0
   -6.2693   -1.8548   25.7413 C   0  0  0  0  0  0  0  0  0  0  0  0
   -5.5919   -0.1121   27.7687 C   0  0  0  0  0  0  0  0  0  0  0  0
   -4.8715   -1.2941   27.6357 C   0  0  0  0  0  0  0  0  0  0  0  0
   -5.2392   -2.1640   26.6047 C   0  0  0  0  0  0  0  0  0  0  0  0
  -11.4141    4.0793   27.7392 C   0  0  0  0  0  0  0  0  0  0  0  0
  -10.7529    2.8056   27.3324 C   0  0  0  0  0  0  0  0  0  0  0  0
  6 10  1  0
  4  3  1  0
  1  2  2  0
  8  7  2  0
  7  6  1  0
  6  5  2  0
  5  1  1  0
  2  3  1  0
  3  9  2  0
  9 16  1  0
 16 17  2  0
 17  8  1  0
  8  2  1  0
 10 11  2  0
 11 12  1  0
 12 15  2  0
 15 14  1  0
 14 13  2  0
 13 10  1  0
M  END
$$$$
