No_4269-complexes_sdf/6BKW-FPZ/2024-09-17-14-21-01/
     RDKit          3D

 20 21  0  0  0  0  0  0  0  0999 V2000
   -7.9040    3.9820   27.1177 C   0  0  0  0  0  0  0  0  0  0  0  0
   -9.0711    4.3164   27.0630 C   0  0  0  0  0  0  0  0  0  0  0  0
   -9.5294    5.4517   27.7215 C   0  0  0  0  0  0  0  0  0  0  0  0
   -7.4336    2.7132   26.5681 C   0  0  0  0  0  0  0  0  0  0  0  0
   -8.3353    1.8569   26.0442 C   0  0  0  0  0  0  0  0  0  0  0  0
   -9.6477    2.2853   25.9146 C   0  0  0  0  0  0  0  0  0  0  0  0
  -10.0346    3.4497   26.4483 C   0  0  2  0  0  0  0  0  0  0  0  0
   -7.8750    0.5509   25.5918 C   0  0  0  0  0  0  0  0  0  0  0  0
   -8.4236   -0.3220   25.9782 O   0  0  0  0  0  0  0  0  0  0  0  0
   -6.9245    4.7081   27.8660 N   0  0  0  0  0  0  0  0  0  0  0  0
   -7.2687    5.8787   28.4514 C   0  0  0  0  0  0  0  0  0  0  0  0
   -8.5781    6.2491   28.3337 N   0  0  0  0  0  0  0  0  0  0  0  0
   -6.6717    0.4635   25.1768 O   0  0  0  0  0  0  0  0  0  0  0  0
  -11.4168    3.8701   26.1622 C   0  0  0  0  0  0  0  0  0  0  0  0
  -11.9760    3.9963   25.0432 C   0  0  0  0  0  0  0  0  0  0  0  0
  -11.2536    3.9818   23.8235 C   0  0  0  0  0  0  0  0  0  0  0  0
  -11.8307    4.1711   22.5845 C   0  0  0  0  0  0  0  0  0  0  0  0
  -13.1781    4.2556   22.5210 C   0  0  0  0  0  0  0  0  0  0  0  0
  -13.3416    4.1941   24.8613 C   0  0  0  0  0  0  0  0  0  0  0  0
  -14.1649    4.2265   26.0741 C   0  0  0  0  0  0  0  0  0  0  0  0
  1  4  1  0
  4  5  1  0
  5  6  1  0
  2  7  1  0
  6  7  1  0
  5  8  1  0
  8  9  2  0
  8 13  1  0
  7 14  1  6
 14 15  1  0
 15 16  1  0
 16 17  2  3
 17 18  1  0
 15 19  1  0
 19 20  2  0
  1  2  1  0
  2  3  2  0
  3 12  1  0
 12 11  2  0
 11 10  1  0
 10  1  2  0
M  END
$$$$
