No_4729-complexes_sdf/6BKW-FPZ/2024-09-17-14-21-01/
     RDKit          3D

 23 25  0  0  0  0  0  0  0  0999 V2000
   -7.2496    3.8871   27.4508 C   0  0  0  0  0  0  0  0  0  0  0  0
   -7.6161    2.7143   27.1523 C   0  0  0  0  0  0  0  0  0  0  0  0
   -8.6212    2.2239   26.4073 C   0  0  0  0  0  0  0  0  0  0  0  0
   -8.2540    4.9237   27.1711 C   0  0  0  0  0  0  0  0  0  0  0  0
   -9.3729    4.5806   26.4433 C   0  0  0  0  0  0  0  0  0  0  0  0
   -9.5830    3.2969   26.1026 C   0  0  0  0  0  0  0  0  0  0  0  0
   -7.9304    6.3207   27.5389 C   0  0  0  0  0  0  0  0  0  0  0  0
   -8.8114    7.3691   27.0321 C   0  0  0  0  0  0  0  0  0  0  0  0
   -6.6015    1.5438   27.5679 C   0  0  0  0  0  0  0  0  0  0  0  0
   -5.4391    1.8694   28.1164 N   0  0  0  0  0  0  0  0  0  0  0  0
   -4.5914    0.8275   28.4151 C   0  0  0  0  0  0  0  0  0  0  0  0
   -4.9605   -0.4357   28.4026 C   0  0  0  0  0  0  0  0  0  0  0  0
   -6.9331    0.2717   27.5354 N   0  0  0  0  0  0  0  0  0  0  0  0
   -6.2253   -0.7123   27.9383 C   0  0  0  0  0  0  0  0  0  0  0  0
   -4.1051   -1.5129   28.9310 C   0  0  0  0  0  0  0  0  0  0  0  0
   -4.3963   -2.2067   29.8348 C   0  0  0  0  0  0  0  0  0  0  0  0
   -3.5400   -3.1799   30.3742 C   0  0  0  0  0  0  0  0  0  0  0  0
   -2.2599   -3.3105   29.8010 C   0  0  0  0  0  0  0  0  0  0  0  0
   -2.7168   -1.5539   28.4760 C   0  0  0  0  0  0  0  0  0  0  0  0
   -1.8306   -2.4429   28.8493 C   0  0  0  0  0  0  0  0  0  0  0  0
  -10.7421    2.9448   25.2555 C   0  0  0  0  0  0  0  0  0  0  0  0
  -11.9021    2.6358   25.8995 C   0  0  0  0  0  0  0  0  0  0  0  0
  -13.0626    2.3104   25.1066 C   0  0  0  0  0  0  0  0  0  0  0  0
  4  7  1  0
  7  8  2  0
  2  9  1  0
 12 15  1  0
  6 21  1  0
 21 22  2  3
 22 23  1  0
 15 16  2  0
 16 17  1  0
 17 18  2  0
 18 20  1  0
 20 19  2  0
 19 15  1  0
  1  2  2  0
  2  3  1  0
  3  6  2  0
  6  5  1  0
  5  4  2  0
  4  1  1  0
  9 10  2  0
 10 11  1  0
 11 12  2  0
 12 14  1  0
 14 13  2  0
 13  9  1  0
M  END
$$$$
