No_4658-complexes_sdf/6BKW-FPZ/2024-09-17-14-21-01/
     RDKit          3D

 25 27  0  0  0  0  0  0  0  0999 V2000
   -7.9040    3.9820   27.1177 C   0  0  0  0  0  0  0  0  0  0  0  0
   -8.2057    2.8231   26.8733 C   0  0  0  0  0  0  0  0  0  0  0  0
   -7.0130    4.3706   28.1140 C   0  0  0  0  0  0  0  0  0  0  0  0
   -7.4093    1.7370   27.3857 C   0  0  0  0  0  0  0  0  0  0  0  0
   -6.1943    2.1490   28.0403 C   0  0  0  0  0  0  0  0  0  0  0  0
   -5.9708    3.4680   28.3199 C   0  0  0  0  0  0  0  0  0  0  0  0
   -8.9048    5.0960   26.7137 C   0  0  0  0  0  0  0  0  0  0  0  0
   -9.5194    4.9927   25.4434 C   0  0  0  0  0  0  0  0  0  0  0  0
   -5.2450    1.0796   28.4383 C   0  0  0  0  0  0  0  0  0  0  0  0
   -5.5087   -0.2607   28.4556 C   0  0  0  0  0  0  0  0  0  0  0  0
   -4.5935   -1.1270   28.9687 C   0  0  0  0  0  0  0  0  0  0  0  0
   -3.3250   -0.6740   29.3918 C   0  0  0  0  0  0  0  0  0  0  0  0
   -3.0094    0.6610   29.2794 C   0  0  0  0  0  0  0  0  0  0  0  0
   -3.8898    1.5203   28.8768 C   0  0  0  0  0  0  0  0  0  0  0  0
   -8.9440    6.3655   27.3507 C   0  0  0  0  0  0  0  0  0  0  0  0
   -2.3723   -1.7107   29.9476 C   0  0  0  0  0  0  0  0  0  0  0  0
   -1.3736   -1.9522   29.3502 O   0  0  0  0  0  0  0  0  0  0  0  0
   -2.6973   -2.2370   31.0714 O   0  0  0  0  0  0  0  0  0  0  0  0
  -10.2536    4.0443   24.9222 C   0  0  0  0  0  0  0  0  0  0  0  0
  -10.8347    3.1082   25.7800 C   0  0  0  0  0  0  0  0  0  0  0  0
  -11.6161    2.0567   25.1367 C   0  0  0  0  0  0  0  0  0  0  0  0
  -12.2782    1.1650   25.9328 C   0  0  0  0  0  0  0  0  0  0  0  0
  -12.0897    1.2503   27.3896 C   0  0  0  0  0  0  0  0  0  0  0  0
  -11.3422    2.2329   27.9729 C   0  0  0  0  0  0  0  0  0  0  0  0
  -10.7743    3.1523   27.2371 C   0  0  0  0  0  0  0  0  0  0  0  0
  1  7  1  0
  7  8  2  3
  5  9  1  0
  7 15  1  0
 12 16  1  0
 16 17  2  0
 16 18  1  0
  8 19  1  0
 19 20  1  0
  1  2  2  0
  2  4  1  0
  4  5  2  0
  5  6  1  0
  6  3  2  0
  3  1  1  0
  9 10  2  0
 10 11  1  0
 11 12  2  0
 12 13  1  0
 13 14  2  0
 14  9  1  0
 20 21  2  0
 21 22  1  0
 22 23  2  0
 23 24  1  0
 24 25  2  0
 25 20  1  0
M  END
$$$$
