No_4261-complexes_sdf/6BKW-FPZ/2024-09-17-14-21-01/
     RDKit          3D

 36 40  0  0  0  0  0  0  0  0999 V2000
   -7.7129    4.2099   27.0854 C   0  0  0  0  0  0  0  0  0  0  0  0
   -8.2112    3.0637   26.9225 C   0  0  0  0  0  0  0  0  0  0  0  0
   -8.5108    5.3904   26.9436 C   0  0  0  0  0  0  0  0  0  0  0  0
   -9.7256    5.1955   26.3518 C   0  0  0  0  0  0  0  0  0  0  0  0
   -9.4995    2.8258   26.4878 C   0  0  0  0  0  0  0  0  0  0  0  0
  -10.2542    3.9691   26.2055 C   0  0  0  0  0  0  0  0  0  0  0  0
   -7.9168    6.7086   27.1908 C   0  0  0  0  0  0  0  0  0  0  0  0
   -7.4036    1.5372   27.3099 Cl  0  0  0  0  0  0  0  0  0  0  0  0
   -8.5628    7.7861   26.8325 O   0  0  0  0  0  0  0  0  0  0  0  0
   -6.7902    6.7817   27.8159 O   0  0  0  0  0  0  0  0  0  0  0  0
  -11.5590    3.9728   25.5205 C   0  0  0  0  0  0  0  0  0  0  0  0
  -12.6803    3.8289   26.2440 C   0  0  0  0  0  0  0  0  0  0  0  0
  -13.9631    3.8178   25.6472 C   0  0  0  0  0  0  0  0  0  0  0  0
  -14.0000    3.8747   24.2451 C   0  0  0  0  0  0  0  0  0  0  0  0
  -11.6918    4.0155   24.1173 C   0  0  0  0  0  0  0  0  0  0  0  0
  -12.8203    4.0201   23.4922 C   0  0  0  0  0  0  0  0  0  0  0  0
  -10.3991    4.1747   23.3180 C   0  0  0  0  0  0  0  0  0  0  0  0
  -10.6025    4.4028   21.9433 C   0  0  0  0  0  0  0  0  0  0  0  0
  -11.3155    3.7914   21.4439 C   0  0  0  0  0  0  0  0  0  0  0  0
  -12.8919    3.9231   22.0443 C   0  0  0  0  0  0  0  0  0  0  0  0
  -12.6311    3.7733   27.7335 C   0  0  0  0  0  0  0  0  0  0  0  0
  -11.8502    3.2213   28.4269 C   0  0  0  0  0  0  0  0  0  0  0  0
  -12.1268    2.8590   29.8246 C   0  0  0  0  0  0  0  0  0  0  0  0
  -13.0657    5.0874   28.4863 C   0  0  0  0  0  0  0  0  0  0  0  0
  -13.1205    3.6838   30.4589 C   0  0  0  0  0  0  0  0  0  0  0  0
  -13.6526    4.7573   29.6932 C   0  0  0  0  0  0  0  0  0  0  0  0
  -13.4484    3.5319   31.8561 C   0  0  0  0  0  0  0  0  0  0  0  0
  -14.6104    3.1215   32.2710 C   0  0  0  0  0  0  0  0  0  0  0  0
  -14.8790    2.9959   33.6747 C   0  0  0  0  0  0  0  0  0  0  0  0
  -13.8606    3.2031   34.6227 C   0  0  0  0  0  0  0  0  0  0  0  0
  -12.5972    3.6602   34.1226 C   0  0  0  0  0  0  0  0  0  0  0  0
  -12.4180    3.8497   32.8665 C   0  0  0  0  0  0  0  0  0  0  0  0
  -11.5465    3.9996   35.1131 C   0  0  0  0  0  0  0  0  0  0  0  0
  -11.9228    3.7458   36.3375 F   0  0  0  0  0  0  0  0  0  0  0  0
  -11.2660    5.3670   35.0412 F   0  0  0  0  0  0  0  0  0  0  0  0
  -10.3969    3.4085   34.8302 F   0  0  0  0  0  0  0  0  0  0  0  0
  3  7  1  0
  2  8  1  0
  7  9  2  0
  7 10  1  0
  6 11  1  0
 12 21  1  0
 25 27  1  0
 31 33  1  0
 33 34  1  0
 33 35  1  0
 33 36  1  0
 21 22  2  0
 22 23  1  0
 23 25  2  0
 25 26  1  0
 26 24  2  0
 24 21  1  0
 27 28  2  0
 28 29  1  0
 29 30  2  0
 30 31  1  0
 31 32  2  0
 32 27  1  0
 11 12  1  0
 12 13  2  0
 13 14  1  0
 14 16  2  0
 15 11  2  0
 15 16  1  0
 16 20  1  0
 20 19  2  0
 19 18  1  0
 18 17  2  0
 17 15  1  0
  1  2  2  0
  2  5  1  0
  5  6  2  0
  6  4  1  0
  4  3  2  0
  3  1  1  0
M  END
$$$$
