No_4865-complexes_sdf/6BKW-FPZ/2024-09-17-14-21-01/
     RDKit          3D

 15 17  0  0  0  0  0  0  0  0999 V2000
   -7.9040    3.9820   27.1177 C   0  0  0  0  0  0  0  0  0  0  0  0
   -7.8663    4.8694   27.9238 C   0  0  0  0  0  0  0  0  0  0  0  0
   -7.4547    2.7080   27.4594 C   0  0  0  0  0  0  0  0  0  0  0  0
   -7.9337    1.5946   26.8372 C   0  0  0  0  0  0  0  0  0  0  0  0
   -7.4948    0.3059   27.1189 C   0  0  0  0  0  0  0  0  0  0  0  0
   -8.6696    6.0289   27.7710 C   0  0  0  0  0  0  0  0  0  0  0  0
   -8.9190    1.7899   25.8011 C   0  0  0  0  0  0  0  0  0  0  0  0
   -9.3883    0.6251   25.1344 C   0  0  0  0  0  0  0  0  0  0  0  0
   -8.0391   -0.7970   26.5285 C   0  0  0  0  0  0  0  0  0  0  0  0
   -9.0140   -0.6090   25.4897 C   0  0  0  0  0  0  0  0  0  0  0  0
   -9.3030    6.2915   26.4872 C   0  0  0  0  0  0  0  0  0  0  0  0
   -8.8881    4.2377   26.0580 C   0  0  0  0  0  0  0  0  0  0  0  0
   -9.4337    5.3824   25.8026 C   0  0  0  0  0  0  0  0  0  0  0  0
   -9.3292    2.9641   25.3427 C   0  0  0  0  0  0  0  0  0  0  0  0
  -10.1495    3.1105   24.4143 F   0  0  0  0  0  0  0  0  0  0  0  0
 14 15  1  0
  1  3  1  0
  3  4  2  0
  7 14  2  0
 14 12  1  0
  4  5  1  0
  5  9  2  0
  9 10  1  0
 10  8  2  0
  8  7  1  0
  7  4  1  0
  1  2  2  0
  2  6  1  0
  6 11  2  0
 11 13  1  0
 13 12  2  0
 12  1  1  0
M  END
$$$$
