No_419-complexes_sdf/6BKW-FPZ/2024-09-17-14-21-01/
     RDKit          3D

 40 45  0  0  0  0  0  0  0  0999 V2000
   -7.7129    4.2099   27.0854 C   0  0  0  0  0  0  0  0  0  0  0  0
   -8.9133    4.4736   27.0998 C   0  0  0  0  0  0  0  0  0  0  0  0
   -9.4616    5.6470   27.6290 C   0  0  0  0  0  0  0  0  0  0  0  0
   -7.2326    2.9175   26.7557 C   0  0  0  0  0  0  0  0  0  0  0  0
   -8.1546    1.9086   26.5054 C   0  0  0  0  0  0  0  0  0  0  0  0
   -7.6739    0.6359   26.2014 C   0  0  0  0  0  0  0  0  0  0  0  0
   -9.5119    2.1654   26.5706 C   0  0  0  0  0  0  0  0  0  0  0  0
   -9.8863    3.4598   26.8987 C   0  0  0  0  0  0  0  0  0  0  0  0
   -7.7461    0.1539   25.1147 O   0  0  0  0  0  0  0  0  0  0  0  0
   -7.0554   -0.1431   27.2286 N   0  0  0  0  0  0  0  0  0  0  0  0
   -6.5062   -1.4383   27.0384 C   0  0  0  0  0  0  0  0  0  0  0  0
   -6.0489   -1.8647   28.1373 C   0  0  0  0  0  0  0  0  0  0  0  0
   -5.9483   -0.8681   29.1150 C   0  0  0  0  0  0  0  0  0  0  0  0
   -6.4786    0.3408   28.4472 C   0  0  0  0  0  0  0  0  0  0  0  0
   -8.4402    6.7292   27.6555 C   0  0  0  0  0  0  0  0  0  0  0  0
   -8.3302    7.6445   26.5108 C   0  0  0  0  0  0  0  0  0  0  0  0
   -7.1198    8.4270   26.6322 C   0  0  0  0  0  0  0  0  0  0  0  0
   -7.1540    6.4085   28.1400 C   0  0  0  0  0  0  0  0  0  0  0  0
   -6.0650    7.1100   28.0254 N   0  0  0  0  0  0  0  0  0  0  0  0
   -6.0425    8.1596   27.3213 C   0  0  0  0  0  0  0  0  0  0  0  0
   -6.7491    5.1505   27.5810 N   0  0  0  0  0  0  0  0  0  0  0  0
  -11.3694    3.6525   26.9649 C   0  0  0  0  0  0  0  0  0  0  0  0
  -12.0737    3.6270   25.9095 C   0  0  0  0  0  0  0  0  0  0  0  0
  -13.4683    3.8541   25.9370 C   0  0  0  0  0  0  0  0  0  0  0  0
  -14.0703    4.3463   27.1692 C   0  0  0  0  0  0  0  0  0  0  0  0
  -13.2593    4.4697   28.2920 C   0  0  0  0  0  0  0  0  0  0  0  0
  -11.9122    4.1943   28.2511 C   0  0  0  0  0  0  0  0  0  0  0  0
   -5.2620   -0.8559   30.3829 C   0  0  0  0  0  0  0  0  0  0  0  0
   -4.2705    0.0935   30.7068 C   0  0  0  0  0  0  0  0  0  0  0  0
   -5.7157   -1.7103   31.4169 C   0  0  0  0  0  0  0  0  0  0  0  0
   -5.1336   -1.5967   32.7481 C   0  0  0  0  0  0  0  0  0  0  0  0
   -3.5986    0.1125   31.9800 C   0  0  0  0  0  0  0  0  0  0  0  0
   -4.0006   -0.7421   32.9636 C   0  0  0  0  0  0  0  0  0  0  0  0
   -3.3146   -0.7458   34.2773 C   0  0  0  0  0  0  0  0  0  0  0  0
   -1.9994   -0.5344   34.3065 N   0  0  0  0  0  0  0  0  0  0  0  0
   -1.1322   -1.0014   33.5391 C   0  0  0  0  0  0  0  0  0  0  0  0
   -1.3007   -2.3452   33.0501 C   0  0  0  0  0  0  0  0  0  0  0  0
   -0.2672   -3.0600   33.4457 C   0  0  0  0  0  0  0  0  0  0  0  0
    0.0758   -3.9340   32.7672 N   0  0  0  0  0  0  0  0  0  0  0  0
   -0.6188   -4.6469   32.0862 C   0  0  0  0  0  0  0  0  0  0  0  0
  5  6  1  0
  6  9  2  0
  6 10  1  0
 10 11  1  0
 11 12  2  0
 12 13  1  0
 10 14  1  0
 13 14  2  0
  8 22  1  0
 13 28  1  0
 33 34  1  0
 34 35  1  0
 35 36  1  0
 36 37  1  0
 37 38  1  0
 38 39  1  0
 39 40  1  0
 22 23  2  0
 23 24  1  0
 24 25  2  0
 25 26  1  0
 26 27  2  0
 27 22  1  0
  2  8  1  0
  8  7  2  0
  7  5  1  0
  5  4  2  0
  4  1  1  0
 15 16  2  0
 16 17  1  0
 17 20  2  0
 20 19  1  0
 19 18  2  0
 28 29  2  0
 29 32  1  0
 32 33  2  0
 33 31  1  0
 31 30  2  0
 30 28  1  0
  1  2  1  0
  2  3  2  0
  3 15  1  0
 15 18  1  0
 18 21  1  0
 21  1  2  0
M  END
$$$$
