No_4993-complexes_sdf/6BKW-FPZ/2024-09-17-14-21-01/
     RDKit          3D

 36 40  0  0  0  0  0  0  0  0999 V2000
   -7.9040    3.9820   27.1177 C   0  0  0  0  0  0  0  0  0  0  0  0
   -7.8663    4.8694   27.9238 C   0  0  0  0  0  0  0  0  0  0  0  0
   -7.4698    2.6989   27.4277 C   0  0  0  0  0  0  0  0  0  0  0  0
   -7.9683    1.5964   26.8266 C   0  0  0  0  0  0  0  0  0  0  0  0
   -8.9447    1.7923   25.8533 C   0  0  0  0  0  0  0  0  0  0  0  0
   -9.4405    2.9988   25.5757 C   0  0  0  0  0  0  0  0  0  0  0  0
   -8.9424    4.1117   26.2388 C   0  0  0  0  0  0  0  0  0  0  0  0
   -8.3103    6.1970   27.6444 N   0  0  0  0  0  0  0  0  0  0  0  0
   -9.1782    6.4963   26.6776 C   0  0  0  0  0  0  0  0  0  0  0  0
   -9.5449    5.3904   25.9238 C   0  0  0  0  0  0  0  0  0  0  0  0
   -7.3881    0.2591   27.0923 C   0  0  0  0  0  0  0  0  0  0  0  0
   -6.0878    0.1334   27.5415 C   0  0  0  0  0  0  0  0  0  0  0  0
   -5.5489   -1.0968   27.8750 C   0  0  0  0  0  0  0  0  0  0  0  0
   -6.3693   -2.1921   27.7606 C   0  0  0  0  0  0  0  0  0  0  0  0
   -7.9373   -1.0334   27.1213 C   0  0  0  0  0  0  0  0  0  0  0  0
   -7.5631   -2.1357   27.4243 C   0  0  0  0  0  0  0  0  0  0  0  0
   -4.1009   -1.0912   28.3546 C   0  0  0  0  0  0  0  0  0  0  0  0
   -3.2877   -0.0565   27.9258 C   0  0  0  0  0  0  0  0  0  0  0  0
   -3.9313    1.1948   27.5689 C   0  0  0  0  0  0  0  0  0  0  0  0
   -5.1643    1.2842   27.3359 C   0  0  0  0  0  0  0  0  0  0  0  0
   -3.9535   -1.3130   29.8141 C   0  0  0  0  0  0  0  0  0  0  0  0
   -2.9980   -2.3457   29.9132 C   0  0  0  0  0  0  0  0  0  0  0  0
   -2.7178   -2.6091   31.2374 C   0  0  0  0  0  0  0  0  0  0  0  0
   -3.5996   -0.2174   30.7127 C   0  0  0  0  0  0  0  0  0  0  0  0
   -3.4106   -0.5465   32.1012 C   0  0  0  0  0  0  0  0  0  0  0  0
   -2.3901   -1.5443   32.2489 N   0  0  0  0  0  0  0  0  0  0  0  0
   -2.2223   -1.9497   33.6235 C   0  0  0  0  0  0  0  0  0  0  0  0
   -1.1338   -1.3914   34.1834 C   0  0  0  0  0  0  0  0  0  0  0  0
   -0.6958   -1.7700   35.4661 C   0  0  0  0  0  0  0  0  0  0  0  0
    0.3564   -1.2885   35.7917 F   0  0  0  0  0  0  0  0  0  0  0  0
   -0.4737   -3.1220   35.4501 F   0  0  0  0  0  0  0  0  0  0  0  0
   -1.7296   -1.5809   36.3691 F   0  0  0  0  0  0  0  0  0  0  0  0
   -8.4387   -3.3341   27.4417 C   0  0  0  0  0  0  0  0  0  0  0  0
   -8.1718   -4.3777   27.6339 C   0  0  0  0  0  0  0  0  0  0  0  0
   -9.8952   -2.9911   27.1396 C   0  0  0  0  0  0  0  0  0  0  0  0
   -6.8563   -4.8474   27.9920 C   0  0  0  0  0  0  0  0  0  0  0  0
  4 11  1  0
 17 21  1  0
 21 22  1  0
 21 24  1  0
 24 25  1  0
 23 26  1  0
 25 26  1  0
 26 27  1  0
 27 28  1  0
 28 29  1  0
 29 30  1  0
 29 31  1  0
 29 32  1  0
 16 33  1  0
 33 34  2  3
 33 35  1  0
 34 36  1  0
 23 22  1  0
  1  2  2  0
  2  8  1  0
  8  9  2  0
  9 10  1  0
 10  7  2  0
  1  3  1  0
  3  4  2  0
  4  5  1  0
  5  6  2  0
  6  7  1  0
  7  1  1  0
 11 12  2  0
 13 14  2  0
 14 16  1  0
 16 15  2  0
 15 11  1  0
 12 13  1  0
 13 17  1  0
 17 18  2  0
 18 19  1  0
 19 20  2  0
 20 12  1  0
M  END
$$$$
