No_4811-complexes_sdf/6BKW-FPZ/2024-09-17-14-21-01/
     RDKit          3D

 26 29  0  0  0  0  0  0  0  0999 V2000
   -7.7129    4.2099   27.0854 C   0  0  0  0  0  0  0  0  0  0  0  0
   -8.2112    3.0637   26.9225 C   0  0  0  0  0  0  0  0  0  0  0  0
   -7.5138    1.9223   27.4249 C   0  0  0  0  0  0  0  0  0  0  0  0
   -8.5309    5.4147   26.8151 C   0  0  0  0  0  0  0  0  0  0  0  0
   -9.6817    5.2393   26.1100 C   0  0  0  0  0  0  0  0  0  0  0  0
  -10.1032    3.9957   25.8534 C   0  0  0  0  0  0  0  0  0  0  0  0
   -9.4034    2.8430   26.2573 C   0  0  0  0  0  0  0  0  0  0  0  0
   -6.2445    2.0060   27.8662 N   0  0  0  0  0  0  0  0  0  0  0  0
   -7.9822    0.5803   27.3252 C   0  0  0  0  0  0  0  0  0  0  0  0
   -5.4830    0.9041   28.2114 C   0  0  0  0  0  0  0  0  0  0  0  0
   -7.3036   -0.5010   27.7869 C   0  0  0  0  0  0  0  0  0  0  0  0
   -5.9658   -0.3124   28.2256 C   0  0  0  0  0  0  0  0  0  0  0  0
   -7.9820    6.7616   27.0942 C   0  0  0  0  0  0  0  0  0  0  0  0
   -4.1651    1.2202   28.6678 N   0  0  0  0  0  0  0  0  0  0  0  0
   -8.6533    7.8570   26.7164 N   0  0  0  0  0  0  0  0  0  0  0  0
   -6.9083    6.8494   27.7738 O   0  0  0  0  0  0  0  0  0  0  0  0
  -11.3713    3.8396   25.0708 C   0  0  0  0  0  0  0  0  0  0  0  0
  -12.3580    3.4110   25.5871 F   0  0  0  0  0  0  0  0  0  0  0  0
  -11.3228    4.1002   23.8069 F   0  0  0  0  0  0  0  0  0  0  0  0
   -5.1743   -1.4179   28.7518 C   0  0  0  0  0  0  0  0  0  0  0  0
   -5.4279   -2.4847   28.8923 N   0  0  0  0  0  0  0  0  0  0  0  0
   -3.8031   -1.0024   29.2025 C   0  0  0  0  0  0  0  0  0  0  0  0
   -3.3639    0.3330   29.1381 C   0  0  0  0  0  0  0  0  0  0  0  0
   -5.1239   -3.4515   29.2933 C   0  0  0  0  0  0  0  0  0  0  0  0
   -3.0117   -1.9767   29.7543 C   0  0  0  0  0  0  0  0  0  0  0  0
   -3.6663   -3.2945   29.8879 C   0  0  0  0  0  0  0  0  0  0  0  0
  2  3  1  0
  4 13  1  0
 10 14  1  0
 13 15  1  0
 13 16  2  0
  6 17  1  0
 17 18  1  0
 17 19  1  0
 12 20  1  0
 14 23  1  0
 22 23  1  0
 20 21  2  0
 21 24  1  0
 24 26  2  0
 26 25  1  0
 25 22  2  0
 22 20  1  0
  1  2  2  0
  2  7  1  0
  7  6  2  0
  6  5  1  0
  5  4  2  0
  4  1  1  0
  3  8  2  0
  8 10  1  0
 10 12  2  0
 12 11  1  0
 11  9  2  0
  9  3  1  0
M  END
$$$$
