No_4306-complexes_sdf/6BKW-FPZ/2024-09-17-14-21-01/
     RDKit          3D

 26 29  0  0  0  0  0  0  0  0999 V2000
   -7.9040    3.9820   27.1177 C   0  0  0  0  0  0  0  0  0  0  0  0
   -7.8663    4.8694   27.9238 C   0  0  0  0  0  0  0  0  0  0  0  0
   -7.4547    2.7080   27.4594 C   0  0  0  0  0  0  0  0  0  0  0  0
   -7.9337    1.5946   26.8372 C   0  0  0  0  0  0  0  0  0  0  0  0
   -8.9603    1.7678   26.1391 C   0  0  0  0  0  0  0  0  0  0  0  0
   -9.5151    2.9338   25.7451 C   0  0  0  0  0  0  0  0  0  0  0  0
   -9.0514    3.9881   26.3110 C   0  0  0  0  0  0  0  0  0  0  0  0
   -8.1879    6.2399   27.5870 N   0  0  0  0  0  0  0  0  0  0  0  0
   -9.1947    6.5871   26.7797 C   0  0  0  0  0  0  0  0  0  0  0  0
   -9.6414    5.3736   26.0326 C   0  0  0  0  0  0  0  0  0  0  0  0
   -7.2854    0.2718   27.2092 C   0  0  0  0  0  0  0  0  0  0  0  0
   -6.2061    0.2754   27.8178 F   0  0  0  0  0  0  0  0  0  0  0  0
   -8.1751   -0.5199   27.8571 F   0  0  0  0  0  0  0  0  0  0  0  0
   -6.9951   -0.4405   26.0008 F   0  0  0  0  0  0  0  0  0  0  0  0
  -10.5560    2.9479   24.6978 C   0  0  0  0  0  0  0  0  0  0  0  0
  -11.8559    2.9003   25.0148 C   0  0  0  0  0  0  0  0  0  0  0  0
  -10.1905    3.1260   23.3448 C   0  0  0  0  0  0  0  0  0  0  0  0
  -10.7960    3.2190   22.4840 C   0  0  0  0  0  0  0  0  0  0  0  0
  -12.3967    2.7760   26.3462 C   0  0  0  0  0  0  0  0  0  0  0  0
  -12.2806    3.2096   22.6487 C   0  0  0  0  0  0  0  0  0  0  0  0
  -12.7903    3.1069   23.8916 C   0  0  0  0  0  0  0  0  0  0  0  0
  -13.3567    3.3091   26.8334 C   0  0  0  0  0  0  0  0  0  0  0  0
  -13.7870    3.1980   28.1872 C   0  0  0  0  0  0  0  0  0  0  0  0
  -12.9849    2.4001   29.0681 C   0  0  0  0  0  0  0  0  0  0  0  0
  -11.8128    1.8218   28.5874 C   0  0  0  0  0  0  0  0  0  0  0  0
  -11.4675    1.9760   27.2437 C   0  0  0  0  0  0  0  0  0  0  0  0
  4 11  1  0
 11 12  1  0
 11 13  1  0
 11 14  1  0
  6 15  1  0
 16 19  1  0
  1  2  2  0
  2  8  1  0
  8  9  2  0
  9 10  1  0
 10  7  2  0
 19 22  2  0
 22 23  1  0
 23 24  2  0
 24 25  1  0
 25 26  2  0
 26 19  1  0
 15 16  2  0
 16 21  1  0
 21 20  2  0
 20 18  1  0
 18 17  2  0
 17 15  1  0
  1  3  1  0
  3  4  2  0
  4  5  1  0
  5  6  2  0
  6  7  1  0
  7  1  1  0
M  END
$$$$
