No_4942-complexes_sdf/6BKW-FPZ/2024-09-17-14-21-01/
     RDKit          3D

 34 37  0  0  0  0  0  0  0  0999 V2000
   -7.7129    4.2099   27.0854 C   0  0  0  0  0  0  0  0  0  0  0  0
   -8.2112    3.0637   26.9225 C   0  0  0  0  0  0  0  0  0  0  0  0
   -8.4224    5.2106   27.8516 C   0  0  0  0  0  0  0  0  0  0  0  0
   -9.5628    2.7160   27.4089 C   0  0  0  0  0  0  0  0  0  0  0  0
  -10.2428    3.7496   28.1155 C   0  0  0  0  0  0  0  0  0  0  0  0
   -7.8060    6.5538   27.9901 C   0  0  0  0  0  0  0  0  0  0  0  0
   -9.7056    4.9853   28.3055 C   0  0  0  0  0  0  0  0  0  0  0  0
  -10.0702    1.3726   27.2447 C   0  0  0  0  0  0  0  0  0  0  0  0
  -10.8798    1.0731   26.2573 C   0  0  0  0  0  0  0  0  0  0  0  0
  -11.3594   -0.2764   26.1198 C   0  0  0  0  0  0  0  0  0  0  0  0
  -11.0104   -1.2336   27.0998 C   0  0  0  0  0  0  0  0  0  0  0  0
  -10.2474   -0.8788   28.1870 C   0  0  0  0  0  0  0  0  0  0  0  0
   -9.7291    0.3852   28.3311 C   0  0  0  0  0  0  0  0  0  0  0  0
   -6.6633    6.6262   27.1327 C   0  0  0  0  0  0  0  0  0  0  0  0
  -11.7771    3.3871   28.7960 Cl  0  0  0  0  0  0  0  0  0  0  0  0
   -6.4430    8.0344   27.0488 N   0  0  0  0  0  0  0  0  0  0  0  0
   -9.8286   -2.0881   29.3553 Cl  0  0  0  0  0  0  0  0  0  0  0  0
  -12.2227   -0.6396   25.0206 C   0  0  0  0  0  0  0  0  0  0  0  0
  -12.5789   -1.6968   24.8078 C   0  0  0  0  0  0  0  0  0  0  0  0
  -12.2135   -2.7663   25.6225 C   0  0  0  0  0  0  0  0  0  0  0  0
  -11.5074   -2.5436   26.8652 C   0  0  0  0  0  0  0  0  0  0  0  0
  -12.7348   -4.1727   25.4820 C   0  0  0  0  0  0  0  0  0  0  0  0
  -13.1464   -4.6376   24.5748 O   0  0  0  0  0  0  0  0  0  0  0  0
  -12.5798   -4.9647   26.6177 O   0  0  0  0  0  0  0  0  0  0  0  0
  -13.0327   -6.1707   26.6749 C   0  0  1  0  0  0  0  0  0  0  0  0
  -12.6599   -7.1931   26.6587 C   0  0  0  0  0  0  0  0  0  0  0  0
  -11.2385   -7.3137   27.0443 C   0  0  0  0  0  0  0  0  0  0  0  0
  -10.2893   -7.4078   26.4516 C   0  0  0  0  0  0  0  0  0  0  0  0
   -8.9001   -7.4312   26.9371 C   0  0  0  0  0  0  0  0  0  0  0  0
   -8.7039   -7.4694   28.2979 C   0  0  0  0  0  0  0  0  0  0  0  0
   -9.8074   -7.4355   29.1260 C   0  0  0  0  0  0  0  0  0  0  0  0
  -11.0821   -7.3290   28.5772 C   0  0  0  0  0  0  0  0  0  0  0  0
  -14.4935   -5.9125   27.1311 C   0  0  0  0  0  0  0  0  0  0  0  0
  -14.8310   -4.9359   27.7777 O   0  0  0  0  0  0  0  0  0  0  0  0
  3  6  1  0
  4  8  1  0
  6 14  1  0
  5 15  1  0
 14 16  2  0
 12 17  1  0
 20 22  1  0
 22 23  2  0
 22 24  1  0
 24 25  1  0
 25 26  1  1
 26 27  1  0
 25 33  1  0
 33 34  2  0
 27 28  2  0
 28 29  1  0
 29 30  2  0
 30 31  1  0
 31 32  2  0
 32 27  1  0
  1  2  2  0
  2  4  1  0
  4  5  2  0
  5  7  1  0
  7  3  2  0
  3  1  1  0
 11 21  2  0
 21 20  1  0
 20 19  2  0
 19 18  1  0
 18 10  2  0
  8  9  2  0
  9 10  1  0
 10 11  1  0
 11 12  1  0
 12 13  2  0
 13  8  1  0
M  END
$$$$
