No_4519-complexes_sdf/6BKW-FPZ/2024-09-17-14-21-01/
     RDKit          3D

 40 45  0  0  0  0  0  0  0  0999 V2000
   -7.7129    4.2099   27.0854 C   0  0  0  0  0  0  0  0  0  0  0  0
   -7.7814    5.1722   27.8972 C   0  0  0  0  0  0  0  0  0  0  0  0
   -8.8255    3.2789   27.1191 C   0  0  0  0  0  0  0  0  0  0  0  0
   -9.9209    3.4734   27.9101 C   0  0  0  0  0  0  0  0  0  0  0  0
  -10.0316    4.7089   28.6463 C   0  0  0  0  0  0  0  0  0  0  0  0
   -8.9258    5.5669   28.6427 C   0  0  0  0  0  0  0  0  0  0  0  0
   -8.6970    1.9978   26.3619 C   0  0  0  0  0  0  0  0  0  0  0  0
   -9.1595    2.0002   25.0585 C   0  0  0  0  0  0  0  0  0  0  0  0
   -8.0652    0.8873   26.9186 C   0  0  0  0  0  0  0  0  0  0  0  0
   -7.9716   -0.2885   26.2783 C   0  0  0  0  0  0  0  0  0  0  0  0
   -9.0889    0.8039   24.3257 C   0  0  0  0  0  0  0  0  0  0  0  0
   -8.4499   -0.3054   24.9156 C   0  0  0  0  0  0  0  0  0  0  0  0
  -11.0609    2.5761   27.9418 C   0  0  0  0  0  0  0  0  0  0  0  0
  -12.2642    2.8524   27.2799 C   0  0  0  0  0  0  0  0  0  0  0  0
  -12.4761    3.8750   26.8612 C   0  0  0  0  0  0  0  0  0  0  0  0
  -13.6905    4.3363   26.1040 C   0  0  0  0  0  0  0  0  0  0  0  0
  -13.4236    2.1068   27.5493 C   0  0  0  0  0  0  0  0  0  0  0  0
  -13.2670    0.7603   28.1366 C   0  0  0  0  0  0  0  0  0  0  0  0
  -11.9910    0.4377   28.5984 C   0  0  0  0  0  0  0  0  0  0  0  0
  -10.8753    1.2766   28.6034 C   0  0  0  0  0  0  0  0  0  0  0  0
  -14.6072    2.3120   26.9261 C   0  0  0  0  0  0  0  0  0  0  0  0
  -15.7512    1.5051   26.9583 C   0  0  0  0  0  0  0  0  0  0  0  0
  -14.6789    3.5764   26.2418 C   0  0  0  0  0  0  0  0  0  0  0  0
  -16.5616    1.5492   27.9969 C   0  0  0  0  0  0  0  0  0  0  0  0
  -16.6981    2.5104   28.7663 C   0  0  0  0  0  0  0  0  0  0  0  0
  -17.6080    2.5641   29.9536 C   0  0  0  0  0  0  0  0  0  0  0  0
  -17.6021    3.6529   30.8663 C   0  0  0  0  0  0  0  0  0  0  0  0
  -16.7021    4.7451   30.6617 C   0  0  0  0  0  0  0  0  0  0  0  0
  -15.7738    4.7005   29.5896 C   0  0  0  0  0  0  0  0  0  0  0  0
  -15.7507    3.6377   28.7918 C   0  0  0  0  0  0  0  0  0  0  0  0
  -15.8450    0.6157   25.8958 C   0  0  0  0  0  0  0  0  0  0  0  0
  -16.4072   -0.5503   26.0097 C   0  0  0  0  0  0  0  0  0  0  0  0
  -17.3943   -0.5830   27.1082 C   0  0  0  0  0  0  0  0  0  0  0  0
  -17.5371    0.4088   28.0276 C   0  0  0  0  0  0  0  0  0  0  0  0
  -15.9259    3.8989   25.5129 C   0  0  0  0  0  0  0  0  0  0  0  0
  -16.4994    4.9044   25.5562 O   0  0  0  0  0  0  0  0  0  0  0  0
  -16.0409    3.1199   24.4248 O   0  0  0  0  0  0  0  0  0  0  0  0
  -11.7687   -0.9594   29.1716 C   0  0  0  0  0  0  0  0  0  0  0  0
  -12.3211   -1.8377   28.6789 O   0  0  0  0  0  0  0  0  0  0  0  0
  -10.5452   -1.1544   29.7340 O   0  0  0  0  0  0  0  0  0  0  0  0
  3  7  1  0
  4 13  1  0
 21 22  1  0
 23 35  1  0
 35 36  2  0
 35 37  1  0
 19 38  1  0
 38 39  2  0
 38 40  1  0
 24 25  1  0
 25 26  2  0
 26 27  1  0
 27 28  2  0
 28 29  1  0
 29 30  2  0
 30 25  1  0
  7  8  2  0
  8 11  1  0
 11 12  2  0
 12 10  1  0
 10  9  2  0
  9  7  1  0
 22 24  2  0
 24 34  1  0
 34 33  2  0
 33 32  1  0
 32 31  2  0
 31 22  1  0
  1  2  2  0
  2  6  1  0
  6  5  2  0
  5  4  1  0
  4  3  2  0
  3  1  1  0
 14 15  2  0
 15 16  1  0
 16 23  2  0
 23 21  1  0
 21 17  2  0
 13 14  1  0
 14 17  1  0
 17 18  1  0
 18 19  2  0
 19 20  1  0
 20 13  2  0
M  END
$$$$
