No_4420-complexes_sdf/6BKW-FPZ/2024-09-17-14-21-01/
     RDKit          3D

 14 14  0  0  0  0  0  0  0  0999 V2000
   -7.9040    3.9820   27.1177 C   0  0  0  0  0  0  0  0  0  0  0  0
   -8.2057    2.8231   26.8733 C   0  0  0  0  0  0  0  0  0  0  0  0
   -8.7695    5.0740   26.7916 C   0  0  0  0  0  0  0  0  0  0  0  0
   -9.9618    4.7598   26.1630 C   0  0  0  0  0  0  0  0  0  0  0  0
   -9.4200    2.4524   26.2850 C   0  0  0  0  0  0  0  0  0  0  0  0
  -10.2590    3.4815   25.9250 C   0  0  0  0  0  0  0  0  0  0  0  0
   -8.3837    6.4702   27.0872 C   0  0  0  0  0  0  0  0  0  0  0  0
   -7.4020    6.7193   26.8450 F   0  0  0  0  0  0  0  0  0  0  0  0
   -9.3485    7.2911   26.4201 F   0  0  0  0  0  0  0  0  0  0  0  0
   -7.2649    1.6836   27.2985 C   0  0  0  0  0  0  0  0  0  0  0  0
   -6.3428    2.0644   28.0732 F   0  0  0  0  0  0  0  0  0  0  0  0
   -7.8072    0.6943   27.9006 F   0  0  0  0  0  0  0  0  0  0  0  0
   -6.7292    1.1089   26.1356 F   0  0  0  0  0  0  0  0  0  0  0  0
   -8.7189    6.6162   28.4459 F   0  0  0  0  0  0  0  0  0  0  0  0
  3  7  1  0
  7  8  1  0
  7  9  1  0
  2 10  1  0
 10 11  1  0
 10 12  1  0
 10 13  1  0
  7 14  1  0
  1  2  2  0
  2  5  1  0
  5  6  2  0
  6  4  1  0
  4  3  2  0
  3  1  1  0
M  END
$$$$
