No_4295-complexes_sdf/6BKW-FPZ/2024-09-17-14-21-01/
     RDKit          3D

 40 44  0  0  0  0  0  0  0  0999 V2000
   -7.9040    3.9820   27.1177 C   0  0  0  0  0  0  0  0  0  0  0  0
   -7.8663    4.8694   27.9238 C   0  0  0  0  0  0  0  0  0  0  0  0
   -7.4547    2.7080   27.4594 C   0  0  0  0  0  0  0  0  0  0  0  0
   -8.0927    6.2909   27.5184 C   0  0  0  0  0  0  0  0  0  0  0  0
   -8.9150    6.5640   26.4331 C   0  0  0  0  0  0  0  0  0  0  0  0
   -7.6563    1.4669   26.7411 C   0  0  0  0  0  0  0  0  0  0  0  0
   -8.5942    4.0508   25.8804 C   0  0  0  0  0  0  0  0  0  0  0  0
   -9.1855    5.4028   25.5718 C   0  0  0  0  0  0  0  0  0  0  0  0
   -6.9630    0.3460   26.9973 C   0  0  0  0  0  0  0  0  0  0  0  0
   -5.8913    0.4120   27.9197 C   0  0  0  0  0  0  0  0  0  0  0  0
   -5.4188    1.6671   28.4159 C   0  0  0  0  0  0  0  0  0  0  0  0
   -6.0612    2.7426   28.1038 C   0  0  0  0  0  0  0  0  0  0  0  0
   -5.1070   -0.8296   28.1922 C   0  0  0  0  0  0  0  0  0  0  0  0
   -3.9697   -0.9651   28.3524 C   0  0  0  0  0  0  0  0  0  0  0  0
   -3.0659   -1.5273   28.6014 C   0  0  0  0  0  0  0  0  0  0  0  0
   -1.6232   -1.1588   28.6407 C   0  0  0  0  0  0  0  0  0  0  0  0
   -0.5336   -1.8610   28.9964 C   0  0  0  0  0  0  0  0  0  0  0  0
   -0.7194   -3.1347   29.4682 C   0  0  0  0  0  0  0  0  0  0  0  0
   -1.9857   -3.6089   29.5183 C   0  0  0  0  0  0  0  0  0  0  0  0
   -3.0130   -2.8996   29.2036 C   0  0  0  0  0  0  0  0  0  0  0  0
   -5.8719   -2.0822   28.3048 C   0  0  0  0  0  0  0  0  0  0  0  0
   -6.2918   -2.8068   27.2813 C   0  0  0  0  0  0  0  0  0  0  0  0
   -7.0401   -3.9846   27.5030 C   0  0  0  0  0  0  0  0  0  0  0  0
   -7.3520   -4.2953   28.8268 C   0  0  0  0  0  0  0  0  0  0  0  0
   -6.3686   -2.6030   29.6207 C   0  0  0  0  0  0  0  0  0  0  0  0
   -7.0309   -3.5966   29.8738 C   0  0  0  0  0  0  0  0  0  0  0  0
   -3.1809    0.7006   28.1993 Cl  0  0  0  0  0  0  0  0  0  0  0  0
   -8.1514   -5.4717   28.8928 F   0  0  0  0  0  0  0  0  0  0  0  0
   -9.8464    5.5127   24.4913 F   0  0  0  0  0  0  0  0  0  0  0  0
   -2.2013   -4.8909   30.0197 O   0  0  0  0  0  0  0  0  0  0  0  0
   -3.1873   -5.6819   29.7117 C   0  0  2  0  0  0  0  0  0  0  0  0
   -3.8212   -6.3654   30.7315 C   0  0  0  0  0  0  0  0  0  0  0  0
   -3.5815   -6.1267   31.9176 C   0  0  0  0  0  0  0  0  0  0  0  0
   -4.2443   -5.9868   32.9630 C   0  0  0  0  0  0  0  0  0  0  0  0
   -3.8323   -5.8081   34.3438 C   0  0  0  0  0  0  0  0  0  0  0  0
   -2.4690   -5.7480   34.5250 C   0  0  0  0  0  0  0  0  0  0  0  0
   -1.6095   -5.8675   33.4766 C   0  0  0  0  0  0  0  0  0  0  0  0
   -2.1202   -6.0183   32.1979 C   0  0  0  0  0  0  0  0  0  0  0  0
   -3.4196   -5.8952   28.3288 C   0  0  0  0  0  0  0  0  0  0  0  0
   -4.3363   -6.8681   27.8941 C   0  0  0  0  0  0  0  0  0  0  0  0
  1  3  1  0
 10 13  1  0
 13 14  2  3
 14 15  1  0
 13 21  1  0
 14 27  1  0
 24 28  1  0
  8 29  1  0
 19 30  1  0
 30 31  1  0
 31 32  1  1
 32 33  1  0
 31 39  1  0
 39 40  2  0
 15 16  2  0
 16 17  1  0
 17 18  2  0
 18 19  1  0
 19 20  2  0
 20 15  1  0
 21 22  2  0
 22 23  1  0
 23 24  2  0
 24 26  1  0
 26 25  2  0
 25 21  1  0
 33 34  2  0
 34 35  1  0
 35 36  2  0
 36 37  1  0
 37 38  2  0
 38 33  1  0
  3  6  2  0
  6  9  1  0
  9 10  2  0
 10 11  1  0
 11 12  2  0
 12  3  1  0
  1  2  2  0
  2  4  1  0
  4  5  2  0
  5  8  1  0
  8  7  2  0
  7  1  1  0
M  END
$$$$
