No_4049-complexes_sdf/6BKW-FPZ/2024-09-17-14-21-01/
     RDKit          3D

 25 28  0  0  0  0  0  0  0  0999 V2000
   -7.7129    4.2099   27.0854 C   0  0  0  0  0  0  0  0  0  0  0  0
   -8.2112    3.0637   26.9225 C   0  0  0  0  0  0  0  0  0  0  0  0
   -8.5108    5.3904   26.9436 C   0  0  0  0  0  0  0  0  0  0  0  0
   -9.7256    5.1955   26.3518 C   0  0  0  0  0  0  0  0  0  0  0  0
   -9.4995    2.8258   26.4878 C   0  0  0  0  0  0  0  0  0  0  0  0
  -10.2542    3.9691   26.2055 C   0  0  0  0  0  0  0  0  0  0  0  0
   -7.9135    6.7086   27.1885 C   0  0  0  0  0  0  0  0  0  0  0  0
   -7.3624    1.8198   27.2561 C   0  0  0  0  0  0  0  0  0  0  0  0
   -6.1430    1.9815   27.7391 N   0  0  0  0  0  0  0  0  0  0  0  0
   -5.4037    0.8311   28.0331 C   0  0  0  0  0  0  0  0  0  0  0  0
   -5.9841   -0.3534   27.8889 C   0  0  0  0  0  0  0  0  0  0  0  0
   -7.7092    0.4570   27.2136 C   0  0  0  0  0  0  0  0  0  0  0  0
   -7.1776   -0.5524   27.5640 C   0  0  0  0  0  0  0  0  0  0  0  0
   -4.0786    1.1227   28.4903 N   0  0  0  0  0  0  0  0  0  0  0  0
   -6.8900    6.7847   27.8689 O   0  0  0  0  0  0  0  0  0  0  0  0
   -8.4165    7.8420   26.6226 N   0  0  0  0  0  0  0  0  0  0  0  0
   -3.2399    0.0459   28.6206 C   0  0  0  0  0  0  0  0  0  0  0  0
   -3.6796   -1.2003   28.6160 C   0  0  0  0  0  0  0  0  0  0  0  0
   -4.9738   -1.4565   28.2947 C   0  0  0  0  0  0  0  0  0  0  0  0
  -11.5838    3.8023   25.5855 C   0  0  0  0  0  0  0  0  0  0  0  0
  -11.6533    3.4251   24.3022 C   0  0  0  0  0  0  0  0  0  0  0  0
  -12.7566    3.4747   23.5780 C   0  0  0  0  0  0  0  0  0  0  0  0
  -13.9695    3.9423   24.2327 C   0  0  0  0  0  0  0  0  0  0  0  0
  -13.9230    4.3520   25.5578 C   0  0  0  0  0  0  0  0  0  0  0  0
  -12.7123    4.4184   26.2657 C   0  0  0  0  0  0  0  0  0  0  0  0
  3  7  1  0
  2  8  1  0
  7 15  2  0
  7 16  1  0
  6 20  1  0
 11 19  2  0
 19 18  1  0
 18 17  2  0
 17 14  1  0
 14 10  2  0
  1  2  2  0
  2  5  1  0
  5  6  2  0
  6  4  1  0
  4  3  2  0
  3  1  1  0
 20 21  2  0
 21 22  1  0
 22 23  2  0
 23 24  1  0
 24 25  2  0
 25 20  1  0
  8  9  2  0
  9 10  1  0
 10 11  1  0
 11 13  1  0
 13 12  2  0
 12  8  1  0
M  END
$$$$
