No_4911-complexes_sdf/6BKW-FPZ/2024-09-17-14-21-01/
     RDKit          3D

 22 24  0  0  0  0  0  0  0  0999 V2000
   -7.7129    4.2099   27.0854 C   0  0  0  0  0  0  0  0  0  0  0  0
   -8.2112    3.0637   26.9225 C   0  0  0  0  0  0  0  0  0  0  0  0
   -8.4224    5.2106   27.8516 C   0  0  0  0  0  0  0  0  0  0  0  0
   -9.5628    2.7160   27.4089 C   0  0  0  0  0  0  0  0  0  0  0  0
  -10.2639    3.7034   28.1156 C   0  0  0  0  0  0  0  0  0  0  0  0
   -9.7059    4.9514   28.3169 C   0  0  0  0  0  0  0  0  0  0  0  0
  -11.6210    3.4159   28.6340 C   0  0  0  0  0  0  0  0  0  0  0  0
  -12.6133    3.0839   27.8781 C   0  0  0  0  0  0  0  0  0  0  0  0
  -13.8620    2.7649   28.4127 C   0  0  0  0  0  0  0  0  0  0  0  0
  -14.0430    2.7794   29.8046 C   0  0  0  0  0  0  0  0  0  0  0  0
  -13.0254    3.1317   30.6345 C   0  0  0  0  0  0  0  0  0  0  0  0
  -11.7747    3.4365   30.1138 C   0  0  0  0  0  0  0  0  0  0  0  0
   -7.6725    6.7672   27.9758 Cl  0  0  0  0  0  0  0  0  0  0  0  0
   -7.3924    1.7417   26.2057 Cl  0  0  0  0  0  0  0  0  0  0  0  0
  -14.9814    2.3788   27.5190 C   0  0  0  0  0  0  0  0  0  0  0  0
  -14.7486    2.2910   26.3562 C   0  0  0  0  0  0  0  0  0  0  0  0
  -15.2431    2.0236   25.4136 C   0  0  0  0  0  0  0  0  0  0  0  0
  -15.0691    1.8787   24.2750 C   0  0  0  0  0  0  0  0  0  0  0  0
  -13.7243    2.1536   23.8082 C   0  0  0  0  0  0  0  0  0  0  0  0
  -12.8418    2.5554   24.7320 C   0  0  0  0  0  0  0  0  0  0  0  0
  -13.2462    2.6541   25.9826 C   0  0  0  0  0  0  0  0  0  0  0  0
  -12.4446    3.0070   27.1058 N   0  0  0  0  0  0  0  0  0  0  0  0
  5  7  1  0
  3 13  1  0
  2 14  1  0
  9 15  1  0
 15 16  1  0
  8 22  1  0
  1  2  2  0
  2  4  1  0
  4  5  2  0
  5  6  1  0
  6  3  2  0
  3  1  1  0
  7  8  2  0
  8  9  1  0
  9 10  2  0
 10 11  1  0
 11 12  2  0
 12  7  1  0
 16 17  2  0
 17 18  1  0
 18 19  2  0
 19 20  1  0
 20 21  2  0
 21 16  1  0
M  END
$$$$
