No_4913-complexes_sdf/6BKW-FPZ/2024-09-17-14-21-01/
     RDKit          3D

 29 33  0  0  0  0  0  0  0  0999 V2000
   -7.9040    3.9820   27.1177 C   0  0  0  0  0  0  0  0  0  0  0  0
   -7.8663    4.8694   27.9238 C   0  0  0  0  0  0  0  0  0  0  0  0
   -7.4547    2.7080   27.4594 C   0  0  0  0  0  0  0  0  0  0  0  0
   -7.9337    1.5946   26.8372 C   0  0  0  0  0  0  0  0  0  0  0  0
   -8.9032    1.7881   25.8510 C   0  0  0  0  0  0  0  0  0  0  0  0
   -9.3787    2.9871   25.5530 C   0  0  0  0  0  0  0  0  0  0  0  0
   -8.9781    4.0300   26.2200 C   0  0  0  0  0  0  0  0  0  0  0  0
   -8.2132    6.2312   27.6173 N   0  0  0  0  0  0  0  0  0  0  0  0
   -9.1014    6.5119   26.6241 C   0  0  0  0  0  0  0  0  0  0  0  0
   -9.5143    5.3947   25.8857 C   0  0  0  0  0  0  0  0  0  0  0  0
   -7.3340    0.2629   27.1258 C   0  0  0  0  0  0  0  0  0  0  0  0
   -6.0795    0.1346   27.6427 C   0  0  0  0  0  0  0  0  0  0  0  0
   -5.5309   -1.1113   27.9865 C   0  0  0  0  0  0  0  0  0  0  0  0
   -6.3507   -2.2076   27.8067 C   0  0  0  0  0  0  0  0  0  0  0  0
   -7.9069   -1.0248   27.0956 C   0  0  0  0  0  0  0  0  0  0  0  0
   -7.5281   -2.1438   27.4116 C   0  0  0  0  0  0  0  0  0  0  0  0
   -4.1138   -1.1180   28.5176 C   0  0  1  0  0  0  0  0  0  0  0  0
   -3.9361   -0.6943   29.8883 C   0  0  0  0  0  0  0  0  0  0  0  0
   -4.1265    0.6301   30.1224 C   0  0  0  0  0  0  0  0  0  0  0  0
   -3.5138   -1.6286   30.8610 C   0  0  0  0  0  0  0  0  0  0  0  0
   -3.5493   -1.2982   32.1447 C   0  0  0  0  0  0  0  0  0  0  0  0
   -3.9775    1.0012   31.5953 C   0  0  0  0  0  0  0  0  0  0  0  0
   -3.6111    0.0759   32.5419 C   0  0  0  0  0  0  0  0  0  0  0  0
   -3.4213   -2.4245   28.1207 C   0  0  2  0  0  0  0  0  0  0  0  0
   -3.3052   -0.0181   27.6092 C   0  0  0  0  0  0  0  0  0  0  0  0
   -2.6041   -0.4537   26.5321 C   0  0  0  0  0  0  0  0  0  0  0  0
   -2.8359   -2.6849   26.9249 C   0  0  0  0  0  0  0  0  0  0  0  0
   -2.1942   -1.6435   26.2785 C   0  0  0  0  0  0  0  0  0  0  0  0
   -3.6585   -3.5010   29.0697 C   0  0  0  0  0  0  0  0  0  0  0  0
  4 11  1  0
 17 13  1  6
 17 18  1  0
 17 24  1  0
 17 25  1  0
 26 28  1  0
 27 28  1  0
 24 29  1  6
 24 27  1  0
 26 25  1  0
  1  2  2  0
  2  8  1  0
  8  9  2  0
  9 10  1  0
 10  7  2  0
  1  3  1  0
  3  4  2  0
  4  5  1  0
  5  6  2  0
  6  7  1  0
  7  1  1  0
 18 19  2  0
 19 22  1  0
 22 23  2  0
 23 21  1  0
 21 20  2  0
 20 18  1  0
 11 12  2  0
 12 13  1  0
 13 14  2  0
 14 16  1  0
 16 15  2  0
 15 11  1  0
M  END
$$$$
