No_4642-complexes_sdf/6BKW-FPZ/2024-09-17-14-21-01/
     RDKit          3D

 14 15  0  0  0  0  0  0  0  0999 V2000
   -7.9040    3.9820   27.1177 C   0  0  0  0  0  0  0  0  0  0  0  0
   -7.8663    4.8694   27.9238 C   0  0  2  0  0  0  0  0  0  0  0  0
   -9.0806    3.1428   27.1220 C   0  0  2  0  0  0  0  0  0  0  0  0
   -8.9544    1.8782   26.5467 C   0  0  0  0  0  0  0  0  0  0  0  0
   -8.9948    5.7403   28.1705 C   0  0  0  0  0  0  0  0  0  0  0  0
   -9.9359    1.0372   26.4454 C   0  0  0  0  0  0  0  0  0  0  0  0
  -10.2581    5.0954   27.9858 C   0  0  0  0  0  0  0  0  0  0  0  0
  -10.2344    3.8558   27.3571 C   0  0  2  0  0  0  0  0  0  0  0  0
   -9.7700   -0.2913   26.0154 C   0  0  0  0  0  0  0  0  0  0  0  0
   -8.5161   -0.6621   25.5972 C   0  0  0  0  0  0  0  0  0  0  0  0
   -7.4191    0.1421   25.7105 C   0  0  0  0  0  0  0  0  0  0  0  0
   -7.5892    1.4303   26.2539 C   0  0  0  0  0  0  0  0  0  0  0  0
  -11.4090    3.2511   27.2392 F   0  0  0  0  0  0  0  0  0  0  0  0
   -6.6759    5.6062   28.1711 O   0  0  0  0  0  0  0  0  0  0  0  0
  1  2  1  0
  1  3  1  0
  3  4  1  6
  2  5  1  0
  5  7  1  0
  3  8  1  0
  7  8  1  0
  8 13  1  1
  2 14  1  6
  4  6  2  0
  6  9  1  0
  9 10  2  0
 10 11  1  0
 11 12  2  0
 12  4  1  0
M  END
$$$$
