No_4751-complexes_sdf/6BKW-FPZ/2024-09-17-14-21-01/
     RDKit          3D

 27 30  0  0  0  0  0  0  0  0999 V2000
   -7.2496    3.8871   27.4508 C   0  0  0  0  0  0  0  0  0  0  0  0
   -8.5096    4.0291   27.2770 C   0  0  0  0  0  0  0  0  0  0  0  0
   -9.3451    2.8786   26.9046 C   0  0  0  0  0  0  0  0  0  0  0  0
   -6.6065    2.5680   27.5073 C   0  0  0  0  0  0  0  0  0  0  0  0
   -7.4233    1.4858   27.2402 C   0  0  0  0  0  0  0  0  0  0  0  0
   -8.7362    1.6525   26.9989 C   0  0  0  0  0  0  0  0  0  0  0  0
   -9.2789    5.2694   27.2420 C   0  0  0  0  0  0  0  0  0  0  0  0
  -10.5227    5.5647   27.5682 C   0  0  0  0  0  0  0  0  0  0  0  0
   -8.4068    6.4603   26.9394 C   0  0  0  0  0  0  0  0  0  0  0  0
   -8.5626    7.7584   27.1327 C   0  0  0  0  0  0  0  0  0  0  0  0
   -6.7850    0.1748   27.2783 C   0  0  0  0  0  0  0  0  0  0  0  0
   -5.5206    0.0412   27.7943 C   0  0  0  0  0  0  0  0  0  0  0  0
   -4.8348    1.2862   28.2010 C   0  0  0  0  0  0  0  0  0  0  0  0
   -5.3214    2.4669   28.0344 N   0  0  0  0  0  0  0  0  0  0  0  0
   -7.5448    8.6697   26.7263 C   0  0  0  0  0  0  0  0  0  0  0  0
   -3.5319    1.1612   28.6606 N   0  0  0  0  0  0  0  0  0  0  0  0
   -2.9452   -0.0608   28.9599 C   0  0  0  0  0  0  0  0  0  0  0  0
   -3.6550   -1.1982   28.7167 C   0  0  1  0  0  0  0  0  0  0  0  0
   -4.9015   -1.1762   28.1443 C   0  0  0  0  0  0  0  0  0  0  0  0
   -2.9804   -2.4825   29.0217 C   0  0  0  0  0  0  0  0  0  0  0  0
   -3.6424   -3.5176   29.0824 C   0  0  0  0  0  0  0  0  0  0  0  0
   -3.6629   -4.3628   27.9959 C   0  0  0  0  0  0  0  0  0  0  0  0
   -3.0943   -3.9787   26.8381 C   0  0  0  0  0  0  0  0  0  0  0  0
   -2.4696   -3.1730   26.6483 C   0  0  0  0  0  0  0  0  0  0  0  0
   -1.6744   -2.6032   28.4259 C   0  0  0  0  0  0  0  0  0  0  0  0
   -1.4695   -2.4008   27.2407 C   0  0  0  0  0  0  0  0  0  0  0  0
   -5.3512   -2.2365   27.6532 O   0  0  0  0  0  0  0  0  0  0  0  0
  2  7  1  0
  7  8  2  0
  7  9  1  0
  9 10  2  3
 10 15  1  0
 13 16  1  0
 17 18  1  0
 12 19  1  0
 18 19  1  0
 18 20  1  6
 20 21  2  0
 21 22  1  0
 22 23  2  0
 23 24  1  0
 20 25  1  0
 24 26  1  0
 25 26  1  0
 19 27  2  0
 16 17  1  0
  1  2  2  0
  2  3  1  0
  3  6  2  0
  6  5  1  0
  4  1  1  0
  4  5  2  0
  5 11  1  0
 11 12  2  0
 12 13  1  0
 13 14  2  0
 14  4  1  0
M  END
$$$$
