No_4358-complexes_sdf/6BKW-FPZ/2024-09-17-14-21-01/
     RDKit          3D

 30 33  0  0  0  0  0  0  0  0999 V2000
   -7.9040    3.9820   27.1177 C   0  0  0  0  0  0  0  0  0  0  0  0
   -8.2057    2.8231   26.8733 C   0  0  0  0  0  0  0  0  0  0  0  0
   -8.7695    5.0740   26.7916 C   0  0  0  0  0  0  0  0  0  0  0  0
   -9.9618    4.7598   26.1630 C   0  0  0  0  0  0  0  0  0  0  0  0
   -9.4200    2.4524   26.2849 C   0  0  0  0  0  0  0  0  0  0  0  0
  -10.2590    3.4815   25.9250 C   0  0  0  0  0  0  0  0  0  0  0  0
   -8.3837    6.4702   27.0872 C   0  0  0  0  0  0  0  0  0  0  0  0
   -8.7793    7.4395   26.4317 N   0  0  0  0  0  0  0  0  0  0  0  0
   -7.2599    6.5747   27.9326 N   0  0  0  0  0  0  0  0  0  0  0  0
   -7.2825    1.6568   27.2773 C   0  0  0  0  0  0  0  0  0  0  0  0
   -6.6951    0.9641   26.7685 C   0  0  0  0  0  0  0  0  0  0  0  0
   -5.7806   -0.0122   27.4625 C   0  0  0  0  0  0  0  0  0  0  0  0
   -4.7599   -0.0105   27.6939 C   0  0  0  0  0  0  0  0  0  0  0  0
   -3.8870   -0.3639   28.3368 C   0  0  0  0  0  0  0  0  0  0  0  0
   -4.2771   -1.5143   29.1990 C   0  0  0  0  0  0  0  0  0  0  0  0
   -6.4020   -1.0386   28.3739 C   0  0  0  0  0  0  0  0  0  0  0  0
   -5.6227   -1.7302   29.1524 C   0  0  0  0  0  0  0  0  0  0  0  0
  -11.4291    3.2194   25.2811 O   0  0  0  0  0  0  0  0  0  0  0  0
  -12.5036    3.0287   25.8019 C   0  0  0  0  0  0  0  0  0  0  0  0
  -13.1803    1.9908   25.5168 C   0  0  0  0  0  0  0  0  0  0  0  0
  -14.2874    1.6740   26.2617 C   0  0  0  0  0  0  0  0  0  0  0  0
  -13.0374    3.6665   27.0123 C   0  0  0  0  0  0  0  0  0  0  0  0
  -14.0258    3.5446   27.7551 C   0  0  0  0  0  0  0  0  0  0  0  0
  -14.7443    2.3790   27.3697 C   0  0  0  0  0  0  0  0  0  0  0  0
   -6.2290   -2.8410   30.0061 C   0  0  0  0  0  0  0  0  0  0  0  0
   -5.8147   -3.9733   29.8604 C   0  0  0  0  0  0  0  0  0  0  0  0
   -7.3040   -2.4116   30.8942 C   0  0  0  0  0  0  0  0  0  0  0  0
   -8.3294   -3.2723   31.2557 C   0  0  0  0  0  0  0  0  0  0  0  0
   -6.7475   -5.0205   30.4742 C   0  0  0  0  0  0  0  0  0  0  0  0
   -8.1561   -4.4410   30.9966 C   0  0  0  0  0  0  0  0  0  0  0  0
  3  7  1  0
  7  8  2  0
  7  9  1  0
  2 10  1  0
 10 11  2  3
 11 12  1  0
  6 18  1  0
 18 19  1  0
 17 25  1  0
 12 13  2  0
 13 14  1  0
 14 15  2  0
 15 17  1  0
 17 16  2  0
 16 12  1  0
 19 20  2  0
 20 21  1  0
 21 24  2  0
 24 23  1  0
 23 22  2  0
 22 19  1  0
  1  2  2  0
  2  5  1  0
  5  6  2  0
  6  4  1  0
  4  3  2  0
  3  1  1  0
 25 26  2  0
 26 29  1  0
 29 30  2  0
 30 28  1  0
 28 27  2  0
 27 25  1  0
M  END
$$$$
