No_4844-complexes_sdf/6BKW-FPZ/2024-09-17-14-21-01/
     RDKit          3D

 15 15  0  0  0  0  0  0  0  0999 V2000
   -7.7129    4.2099   27.0854 C   0  0  0  0  0  0  0  0  0  0  0  0
   -8.2112    3.0637   26.9225 C   0  0  0  0  0  0  0  0  0  0  0  0
   -9.4446    2.8304   26.1868 C   0  0  0  0  0  0  0  0  0  0  0  0
   -8.4697    5.3956   26.7238 C   0  0  0  0  0  0  0  0  0  0  0  0
   -9.6172    5.2111   25.9513 C   0  0  0  0  0  0  0  0  0  0  0  0
  -10.0424    3.9782   25.6873 C   0  0  0  0  0  0  0  0  0  0  0  0
   -7.9172    6.7181   27.0124 C   0  0  0  0  0  0  0  0  0  0  0  0
   -7.2016    6.7379   28.0490 F   0  0  0  0  0  0  0  0  0  0  0  0
   -8.2251    7.7471   26.4593 F   0  0  0  0  0  0  0  0  0  0  0  0
   -7.4943    1.8021   27.3769 C   0  0  2  0  0  0  0  0  0  0  0  0
   -5.9850    1.9363   27.9930 Cl  0  0  0  0  0  0  0  0  0  0  0  0
   -7.8915    0.4928   26.9167 C   0  0  0  0  0  0  0  0  0  0  0  0
   -8.8565   -0.1124   27.6362 C   0  0  0  0  0  0  0  0  0  0  0  0
   -9.2930   -1.4394   27.3756 C   0  0  0  0  0  0  0  0  0  0  0  0
   -8.7394   -2.0083   26.2591 C   0  0  0  0  0  0  0  0  0  0  0  0
  4  7  1  0
  7  8  1  0
  7  9  1  0
  2 10  1  0
 10 11  1  6
 10 12  1  0
 12 13  2  3
 13 14  1  0
 14 15  2  0
  1  2  2  0
  2  3  1  0
  3  6  2  0
  6  5  1  0
  5  4  2  0
  4  1  1  0
M  END
$$$$
