No_4294-complexes_sdf/6BKW-FPZ/2024-09-17-14-21-01/
     RDKit          3D

 12 12  0  0  0  0  0  0  0  0999 V2000
   -7.9040    3.9820   27.1177 C   0  0  0  0  0  0  0  0  0  0  0  0
   -9.0711    4.3164   27.0630 C   0  0  0  0  0  0  0  0  0  0  0  0
  -10.0395    3.8218   27.1938 C   0  0  0  0  0  0  0  0  0  0  0  0
   -7.6424    2.5858   27.3610 C   0  0  0  0  0  0  0  0  0  0  0  0
   -8.7646    1.7754   27.4263 C   0  0  0  0  0  0  0  0  0  0  0  0
   -9.9966    2.3406   27.3957 C   0  0  0  0  0  0  0  0  0  0  0  0
   -6.0600    1.9631   27.3980 Cl  0  0  0  0  0  0  0  0  0  0  0  0
   -9.1455    5.9650   26.8932 C   0  0  0  0  0  0  0  0  0  0  0  0
   -8.5641    6.6423   25.7865 C   0  0  0  0  0  0  0  0  0  0  0  0
  -11.1956    1.4920   27.7058 C   0  0  0  0  0  0  0  0  0  0  0  0
  -11.0477    0.3105   27.8968 N   0  0  0  0  0  0  0  0  0  0  0  0
  -12.0698   -0.4834   28.3987 C   0  0  0  0  0  0  0  0  0  0  0  0
  4  7  1  0
  2  8  1  0
  8  9  1  0
  6 10  1  0
 10 11  2  3
 11 12  1  0
  1  2  2  0
  2  3  1  0
  3  6  2  0
  6  5  1  0
  5  4  2  0
  4  1  1  0
M  END
$$$$
