No_4198-complexes_sdf/6BKW-FPZ/2024-09-17-14-21-01/
     RDKit          3D

 38 42  0  0  0  0  0  0  0  0999 V2000
   -7.9040    3.9820   27.1177 C   0  0  0  0  0  0  0  0  0  0  0  0
   -8.2057    2.8231   26.8733 C   0  0  0  0  0  0  0  0  0  0  0  0
   -8.7695    5.0740   26.7916 C   0  0  0  0  0  0  0  0  0  0  0  0
   -8.4337    6.4678   27.0913 C   0  0  0  0  0  0  0  0  0  0  0  0
   -9.3742    2.4311   26.2346 C   0  0  0  0  0  0  0  0  0  0  0  0
  -10.2395    3.4267   25.8887 C   0  0  0  0  0  0  0  0  0  0  0  0
   -9.9567    4.7548   26.1374 C   0  0  0  0  0  0  0  0  0  0  0  0
   -7.9449    7.5014   26.9590 N   0  0  0  0  0  0  0  0  0  0  0  0
   -7.2426    1.6814   27.2966 C   0  0  0  0  0  0  0  0  0  0  0  0
   -7.5505    0.3972   27.2174 N   0  0  0  0  0  0  0  0  0  0  0  0
   -5.9048    1.9070   27.6455 N   0  0  0  0  0  0  0  0  0  0  0  0
   -6.4327   -0.2195   27.7152 C   0  0  0  0  0  0  0  0  0  0  0  0
   -5.4548    0.6873   27.9765 C   0  0  0  0  0  0  0  0  0  0  0  0
   -4.0796    0.5010   28.4982 C   0  0  0  0  0  0  0  0  0  0  0  0
   -3.9482   -0.2014   29.6333 C   0  0  0  0  0  0  0  0  0  0  0  0
   -4.5199    0.0322   30.7882 C   0  0  0  0  0  0  0  0  0  0  0  0
   -4.2257   -0.6646   32.0010 C   0  0  0  0  0  0  0  0  0  0  0  0
   -2.6832   -0.9951   29.7594 C   0  0  0  0  0  0  0  0  0  0  0  0
   -2.3364   -1.6144   30.9258 C   0  0  0  0  0  0  0  0  0  0  0  0
   -3.1031   -1.4230   32.0820 C   0  0  0  0  0  0  0  0  0  0  0  0
   -3.1366    0.8610   27.6662 O   0  0  0  0  0  0  0  0  0  0  0  0
   -2.7298   -2.0586   33.3732 C   0  0  0  0  0  0  0  0  0  0  0  0
   -2.2159   -1.5989   34.3275 C   0  0  0  0  0  0  0  0  0  0  0  0
   -1.8922   -2.2241   35.6010 C   0  0  0  0  0  0  0  0  0  0  0  0
   -2.2525   -3.5247   35.6932 C   0  0  0  0  0  0  0  0  0  0  0  0
   -3.0762   -3.4455   33.5122 C   0  0  0  0  0  0  0  0  0  0  0  0
   -2.8298   -4.1240   34.6343 C   0  0  0  0  0  0  0  0  0  0  0  0
   -1.6803   -0.0308   34.3781 C   0  0  0  0  0  0  0  0  0  0  0  0
   -0.4784    0.0953   34.2457 O   0  0  0  0  0  0  0  0  0  0  0  0
   -6.3587   -1.4978   27.9017 F   0  0  0  0  0  0  0  0  0  0  0  0
  -11.4708    3.1349   25.1076 C   0  0  0  0  0  0  0  0  0  0  0  0
  -12.5718    2.8786   25.7614 C   0  0  0  0  0  0  0  0  0  0  0  0
  -12.5794    2.9438   27.2352 C   0  0  0  0  0  0  0  0  0  0  0  0
  -11.7464    3.0212   27.9648 C   0  0  0  0  0  0  0  0  0  0  0  0
  -12.0507    3.0490   29.5473 C   0  0  0  0  0  0  0  0  0  0  0  0
  -13.3541    3.0986   29.8767 C   0  0  0  0  0  0  0  0  0  0  0  0
  -14.3516    3.1532   28.9741 C   0  0  0  0  0  0  0  0  0  0  0  0
  -14.0977    3.1222   27.6529 C   0  0  0  0  0  0  0  0  0  0  0  0
  3  4  1  0
  4  8  3  0
  2  9  1  0
  9 10  2  0
  9 11  1  0
 10 12  1  0
 11 13  1  0
 12 13  2  0
 13 14  1  0
 14 15  1  0
 14 21  2  0
 20 22  1  0
 23 28  1  0
 28 29  2  0
 12 30  1  0
  6 31  1  0
 31 32  2  3
 32 33  1  0
 15 16  2  0
 16 17  1  0
 17 20  2  0
 20 19  1  0
 19 18  2  0
 18 15  1  0
 33 34  2  0
 34 35  1  0
 35 36  2  0
 36 37  1  0
 37 38  2  0
 38 33  1  0
 22 23  2  0
 23 24  1  0
 24 25  2  0
 25 27  1  0
 27 26  2  0
 26 22  1  0
  1  2  2  0
  2  5  1  0
  5  6  2  0
  6  7  1  0
  7  3  2  0
  3  1  1  0
M  END
$$$$
