No_402-complexes_sdf/6BKW-FPZ/2024-09-17-14-21-01/
     RDKit          3D

 40 44  0  0  0  0  0  0  0  0999 V2000
   -7.7129    4.2099   27.0854 C   0  0  0  0  0  0  0  0  0  0  0  0
   -8.9133    4.4736   27.0998 C   0  0  0  0  0  0  0  0  0  0  0  0
   -9.7135    3.9633   26.0300 C   0  0  0  0  0  0  0  0  0  0  0  0
   -7.1708    2.9509   26.6517 C   0  0  0  0  0  0  0  0  0  0  0  0
   -8.1422    2.1350   26.0104 C   0  0  0  0  0  0  0  0  0  0  0  0
  -10.9779    4.4822   25.7125 C   0  0  0  0  0  0  0  0  0  0  0  0
   -9.3806    2.6844   25.5517 C   0  0  0  0  0  0  0  0  0  0  0  0
  -12.0749    4.1554   26.5639 C   0  0  0  0  0  0  0  0  0  0  0  0
  -12.5654    3.1015   26.6920 C   0  0  0  0  0  0  0  0  0  0  0  0
  -13.2137    2.6712   27.4748 C   0  0  0  0  0  0  0  0  0  0  0  0
  -13.7290    3.5740   28.6033 C   0  0  0  0  0  0  0  0  0  0  0  0
  -13.2283    4.8770   28.5078 C   0  0  0  0  0  0  0  0  0  0  0  0
  -12.3222    5.2086   27.6167 C   0  0  0  0  0  0  0  0  0  0  0  0
   -6.8566    4.8719   28.0701 N   0  0  0  0  0  0  0  0  0  0  0  0
  -14.7208    3.1591   29.6608 C   0  0  0  0  0  0  0  0  0  0  0  0
  -15.1884    3.8832   30.4258 C   0  0  0  0  0  0  0  0  0  0  0  0
  -15.0087    1.6951   29.6966 C   0  0  0  0  0  0  0  0  0  0  0  0
  -16.0034    3.6303   31.4317 C   0  0  0  0  0  0  0  0  0  0  0  0
  -15.9185    1.3429   30.7167 C   0  0  0  0  0  0  0  0  0  0  0  0
  -16.3750    2.2634   31.5861 C   0  0  0  0  0  0  0  0  0  0  0  0
  -17.3781    1.8497   32.6529 C   0  0  0  0  0  0  0  0  0  0  0  0
  -17.1102    2.0497   33.8195 F   0  0  0  0  0  0  0  0  0  0  0  0
  -17.5376    0.4625   32.5484 F   0  0  0  0  0  0  0  0  0  0  0  0
  -18.5583    2.4054   32.3590 F   0  0  0  0  0  0  0  0  0  0  0  0
   -7.2402    5.9252   28.7027 C   0  0  0  0  0  0  0  0  0  0  0  0
   -9.2300    5.8707   27.4923 C   0  0  0  0  0  0  0  0  0  0  0  0
   -8.3836    6.5064   28.3612 N   0  0  0  0  0  0  0  0  0  0  0  0
  -10.3248    1.7870   24.5158 Cl  0  0  0  0  0  0  0  0  0  0  0  0
   -7.5709    1.0081   25.5489 O   0  0  0  0  0  0  0  0  0  0  0  0
   -7.2162    0.0436   26.4008 C   0  0  0  0  0  0  0  0  0  0  0  0
   -7.8734   -0.2555   27.4230 C   0  0  0  0  0  0  0  0  0  0  0  0
   -7.4859   -1.3191   28.2967 C   0  0  0  0  0  0  0  0  0  0  0  0
   -6.2795   -1.9271   28.0669 C   0  0  0  0  0  0  0  0  0  0  0  0
   -5.5244   -1.5715   26.9992 C   0  0  0  0  0  0  0  0  0  0  0  0
   -5.9527   -0.5932   26.1079 C   0  0  0  0  0  0  0  0  0  0  0  0
   -5.8217   -3.1566   29.1948 Cl  0  0  0  0  0  0  0  0  0  0  0  0
   -4.1990   -2.2953   26.7143 C   0  0  0  0  0  0  0  0  0  0  0  0
   -4.0322   -2.7185   25.6367 O   0  0  0  0  0  0  0  0  0  0  0  0
   -3.4447   -2.6151   27.7955 O   0  0  0  0  0  0  0  0  0  0  0  0
   -2.1290   -2.9165   27.5039 C   0  0  0  0  0  0  0  0  0  0  0  0
  3  6  1  0
  6  8  1  0
  1 14  1  0
 11 15  1  0
 20 21  1  0
 21 22  1  0
 21 23  1  0
 21 24  1  0
 14 25  1  0
  2 26  1  0
 25 27  1  0
 26 27  1  0
  7 28  1  0
  5 29  1  0
 29 30  1  0
 33 36  1  0
 34 37  1  0
 37 38  2  0
 37 39  1  0
 39 40  1  0
 30 31  2  0
 31 32  1  0
 32 33  2  0
 33 34  1  0
 34 35  2  0
 35 30  1  0
 15 16  2  0
 16 18  1  0
 18 20  2  0
 20 19  1  0
 19 17  2  0
 17 15  1  0
  1  2  2  0
  2  3  1  0
  3  7  2  0
  7  5  1  0
  5  4  2  0
  4  1  1  0
  8  9  2  0
  9 10  1  0
 10 11  2  0
 11 12  1  0
 12 13  2  0
 13  8  1  0
M  END
$$$$
