No_4343-complexes_sdf/6BKW-FPZ/2024-09-17-14-21-01/
     RDKit          3D

 17 18  0  0  0  0  0  0  0  0999 V2000
   -7.2496    3.8871   27.4508 C   0  0  0  0  0  0  0  0  0  0  0  0
   -7.6161    2.7143   27.1523 C   0  0  0  0  0  0  0  0  0  0  0  0
   -8.8302    2.4659   26.5056 C   0  0  0  0  0  0  0  0  0  0  0  0
   -8.1584    5.0090   27.3234 C   0  0  0  0  0  0  0  0  0  0  0  0
   -9.3788    4.7965   26.7695 C   0  0  0  0  0  0  0  0  0  0  0  0
   -9.7028    3.5649   26.3276 C   0  0  0  0  0  0  0  0  0  0  0  0
   -6.5995    1.7837   27.4559 N   0  0  0  0  0  0  0  0  0  0  0  0
   -6.8297    0.4423   27.6285 C   0  0  0  0  0  0  0  0  0  0  0  0
   -5.6771   -0.3145   28.0713 C   0  0  0  0  0  0  0  0  0  0  0  0
   -4.6765    0.7408   28.1712 C   0  0  1  0  0  0  0  0  0  0  0  0
   -5.2988    2.0150   27.9087 C   0  0  0  0  0  0  0  0  0  0  0  0
   -7.7323    6.3762   27.7794 C   0  0  0  0  0  0  0  0  0  0  0  0
   -3.3207    0.6215   28.6756 C   0  0  0  0  0  0  0  0  0  0  0  0
   -3.1091   -0.4710   29.5475 C   0  0  0  0  0  0  0  0  0  0  0  0
   -4.0153   -0.6795   30.5674 C   0  0  0  0  0  0  0  0  0  0  0  0
   -3.6908   -1.6779   31.5706 C   0  0  0  0  0  0  0  0  0  0  0  0
   -2.5658   -2.3727   31.4371 C   0  0  0  0  0  0  0  0  0  0  0  0
  2  7  1  0
  7  8  1  0
  8  9  2  0
  9 10  1  0
  7 11  1  0
 10 11  1  1
  4 12  1  0
 10 13  1  0
 13 14  2  3
 14 15  1  0
 15 16  1  0
 16 17  2  0
  1  2  2  0
  2  3  1  0
  3  6  2  0
  6  5  1  0
  5  4  2  0
  4  1  1  0
M  END
$$$$
