No_4508-complexes_sdf/6BKW-FPZ/2024-09-17-14-21-01/
     RDKit          3D

 22 23  0  0  0  0  0  0  0  0999 V2000
   -7.9040    3.9820   27.1177 C   0  0  0  0  0  0  0  0  0  0  0  0
   -8.2057    2.8231   26.8733 C   0  0  0  0  0  0  0  0  0  0  0  0
   -7.4766    1.7477   27.4593 C   0  0  0  0  0  0  0  0  0  0  0  0
   -8.7468    5.1251   26.6967 C   0  0  0  0  0  0  0  0  0  0  0  0
   -9.7234    4.8589   25.8202 C   0  0  0  0  0  0  0  0  0  0  0  0
   -9.9711    3.5858   25.4266 C   0  0  0  0  0  0  0  0  0  0  0  0
   -9.2266    2.4957   25.9600 C   0  0  0  0  0  0  0  0  0  0  0  0
   -6.6635    0.9000   26.7532 C   0  0  0  0  0  0  0  0  0  0  0  0
   -6.4349   -0.0623   27.2728 C   0  0  0  0  0  0  0  0  0  0  0  0
   -6.6836   -0.5344   28.3846 C   0  0  0  0  0  0  0  0  0  0  0  0
   -6.1771   -1.7984   28.9904 C   0  0  0  0  0  0  0  0  0  0  0  0
   -6.4278   -2.1212   30.3273 C   0  0  0  0  0  0  0  0  0  0  0  0
   -8.4370    6.5219   27.1046 C   0  0  0  0  0  0  0  0  0  0  0  0
   -8.8338    7.5686   26.4866 N   0  0  0  0  0  0  0  0  0  0  0  0
   -5.3446   -0.9439   26.7779 C   0  0  0  0  0  0  0  0  0  0  0  0
   -4.7646   -2.0868   27.1435 C   0  0  0  0  0  0  0  0  0  0  0  0
   -5.1862   -2.4443   28.3747 C   0  0  0  0  0  0  0  0  0  0  0  0
   -7.5806    6.5650   28.1071 O   0  0  0  0  0  0  0  0  0  0  0  0
   -7.7003   -2.7119   30.6856 C   0  0  0  0  0  0  0  0  0  0  0  0
   -8.0738   -2.9075   32.0445 C   0  0  0  0  0  0  0  0  0  0  0  0
   -7.1570   -2.5215   33.0665 C   0  0  0  0  0  0  0  0  0  0  0  0
   -5.9688   -1.8818   32.7590 C   0  0  0  0  0  0  0  0  0  0  0  0
  2  3  1  0
  3  8  1  0
  8  9  1  0
  4 13  1  0
 13 14  2  0
 13 18  1  0
 12 19  1  0
 19 20  2  3
 20 21  1  0
 21 22  2  0
 12 11  1  0
  1  2  2  0
  2  7  1  0
  7  6  2  0
  6  5  1  0
  5  4  2  0
  4  1  1  0
  9 10  2  0
 10 11  1  0
 11 17  2  0
 17 16  1  0
 16 15  2  0
 15  9  1  0
M  END
$$$$
