No_4610-complexes_sdf/6BKW-FPZ/2024-09-17-14-21-01/
     RDKit          3D

 11 12  0  0  0  0  0  0  0  0999 V2000
   -7.9040    3.9820   27.1177 C   0  0  0  0  0  0  0  0  0  0  0  0
   -7.8663    4.8694   27.9238 C   0  0  0  0  0  0  0  0  0  0  0  0
   -9.0491    3.8523   26.2542 C   0  0  0  0  0  0  0  0  0  0  0  0
   -9.4067    2.6808   25.6532 C   0  0  0  0  0  0  0  0  0  0  0  0
   -8.5275    6.1191   27.7061 C   0  0  0  0  0  0  0  0  0  0  0  0
   -8.8735    1.4981   26.1333 C   0  0  0  0  0  0  0  0  0  0  0  0
   -7.7349    1.5405   27.0386 C   0  0  0  0  0  0  0  0  0  0  0  0
   -7.3982    2.6877   27.6090 C   0  0  0  0  0  0  0  0  0  0  0  0
   -9.4813    6.2538   26.6156 C   0  0  0  0  0  0  0  0  0  0  0  0
   -9.7344    5.0761   25.9137 C   0  0  0  0  0  0  0  0  0  0  0  0
   -6.9085    0.1018   27.5707 Cl  0  0  0  0  0  0  0  0  0  0  0  0
  7 11  1  0
  3  4  1  0
  4  6  2  0
  6  7  1  0
  7  8  2  0
  8  1  1  0
  1  2  2  0
  2  5  1  0
  5  9  2  0
  9 10  1  0
 10  3  2  0
  3  1  1  0
M  END
$$$$
