No_4886-complexes_sdf/6BKW-FPZ/2024-09-17-14-21-01/
     RDKit          3D

 32 35  0  0  0  0  0  0  0  0999 V2000
   -7.9040    3.9820   27.1177 C   0  0  0  0  0  0  0  0  0  0  0  0
   -7.8663    4.8694   27.9238 C   0  0  0  0  0  0  0  0  0  0  0  0
   -7.4547    2.7080   27.4594 C   0  0  0  0  0  0  0  0  0  0  0  0
   -7.9337    1.5946   26.8372 C   0  0  0  0  0  0  0  0  0  0  0  0
   -8.9032    1.7881   25.8510 C   0  0  0  0  0  0  0  0  0  0  0  0
   -9.3649    0.5983   25.1884 C   0  0  0  0  0  0  0  0  0  0  0  0
   -8.8102    3.8889   26.0792 C   0  0  0  0  0  0  0  0  0  0  0  0
   -9.3611    2.9570   25.4861 C   0  0  0  0  0  0  0  0  0  0  0  0
   -8.0524    6.2700   27.5855 N   0  0  0  0  0  0  0  0  0  0  0  0
   -9.9971   -0.3820   25.7311 C   0  0  0  0  0  0  0  0  0  0  0  0
  -10.4651   -1.5296   25.0618 C   0  0  0  0  0  0  0  0  0  0  0  0
   -9.8519    0.7659   23.8267 C   0  0  0  0  0  0  0  0  0  0  0  0
  -10.3139   -0.3477   23.0697 C   0  0  0  0  0  0  0  0  0  0  0  0
  -10.6884   -1.4420   23.7487 C   0  0  0  0  0  0  0  0  0  0  0  0
   -9.1707    6.7573   27.1723 C   0  0  0  0  0  0  0  0  0  0  0  0
   -6.9185    7.1406   27.4971 C   0  0  0  0  0  0  0  0  0  0  0  0
   -7.2220    8.4380   26.9194 C   0  0  0  0  0  0  0  0  0  0  0  0
   -8.6157    8.3857   26.6853 N   0  0  0  0  0  0  0  0  0  0  0  0
  -11.2517   -2.4430   23.0064 O   0  0  0  0  0  0  0  0  0  0  0  0
  -11.6420   -3.5306   23.3814 C   0  0  0  0  0  0  0  0  0  0  0  0
  -12.6879   -3.8239   23.3201 C   0  0  0  0  0  0  0  0  0  0  0  0
  -13.2128   -5.1700   23.8062 C   0  0  0  0  0  0  0  0  0  0  0  0
  -12.2513   -6.0438   24.2927 C   0  0  0  0  0  0  0  0  0  0  0  0
  -10.9495   -5.6669   24.3342 C   0  0  0  0  0  0  0  0  0  0  0  0
  -10.5375   -4.3785   23.9162 C   0  0  0  0  0  0  0  0  0  0  0  0
   -9.9079   -6.5646   24.8702 C   0  0  2  0  0  0  0  0  0  0  0  0
   -9.2458   -6.1854   25.8437 N   0  0  0  0  0  0  0  0  0  0  0  0
   -8.1884   -6.7156   26.3079 C   0  0  0  0  0  0  0  0  0  0  0  0
   -9.6464   -8.1208   23.9981 Br  0  0  0  0  0  0  0  0  0  0  0  0
   -7.6056   -6.0521   27.4535 C   0  0  0  0  0  0  0  0  0  0  0  0
   -8.1226   -4.8734   27.9012 C   0  0  0  0  0  0  0  0  0  0  0  0
   -9.2769   -4.3147   27.3162 C   0  0  0  0  0  0  0  0  0  0  0  0
  1  2  1  0
  5  6  1  0
  2  9  1  0
  9 15  1  0
  9 16  1  0
 16 17  1  0
 15 18  1  0
 17 18  1  0
 14 19  1  0
 19 20  1  0
 24 26  1  0
 26 27  1  0
 27 28  2  3
 26 29  1  6
 28 30  1  0
 30 31  2  3
 31 32  1  0
  6 10  2  0
 10 11  1  0
 11 14  2  0
 14 13  1  0
 13 12  2  0
 12  6  1  0
  1  3  2  0
  3  4  1  0
  4  5  2  0
  5  8  1  0
  8  7  2  0
  7  1  1  0
 20 21  2  0
 21 22  1  0
 22 23  2  0
 23 24  1  0
 24 25  2  0
 25 20  1  0
M  END
$$$$
