No_4648-complexes_sdf/6BKW-FPZ/2024-09-17-14-21-01/
     RDKit          3D

 24 25  0  0  0  0  0  0  0  0999 V2000
   -7.2496    3.8871   27.4508 C   0  0  0  0  0  0  0  0  0  0  0  0
   -8.5096    4.0291   27.2770 C   0  0  0  0  0  0  0  0  0  0  0  0
   -9.2677    5.1714   27.5773 C   0  0  2  0  0  0  0  0  0  0  0  0
   -9.1323    3.0875   26.2773 C   0  0  0  0  0  0  0  0  0  0  0  0
   -8.8630    1.7782   26.4833 C   0  0  0  0  0  0  0  0  0  0  0  0
   -6.6409    2.5427   27.4506 C   0  0  0  0  0  0  0  0  0  0  0  0
   -7.4263    1.5169   26.9335 C   0  0  0  0  0  0  0  0  0  0  0  0
   -8.5992    6.4153   27.6669 C   0  0  0  0  0  0  0  0  0  0  0  0
  -10.6475    5.0581   28.0067 C   0  0  0  0  0  0  0  0  0  0  0  0
   -6.7049    0.2586   26.8488 C   0  0  0  0  0  0  0  0  0  0  0  0
   -6.9832   -0.6636   27.8782 C   0  0  0  0  0  0  0  0  0  0  0  0
   -6.0104   -1.4638   28.3419 C   0  0  0  0  0  0  0  0  0  0  0  0
   -4.8054   -1.5461   27.5975 C   0  0  0  0  0  0  0  0  0  0  0  0
   -4.5671   -0.6860   26.5298 C   0  0  0  0  0  0  0  0  0  0  0  0
   -5.5067    0.2633   26.2221 C   0  0  0  0  0  0  0  0  0  0  0  0
   -8.0572    6.9042   26.4085 C   0  0  0  0  0  0  0  0  0  0  0  0
   -8.6346    8.1817   26.3126 C   0  0  0  0  0  0  0  0  0  0  0  0
   -9.4539    0.7099   25.7923 C   0  0  0  0  0  0  0  0  0  0  0  0
  -10.2154    0.9683   24.8406 C   0  0  0  0  0  0  0  0  0  0  0  0
  -10.0478    0.7839   23.7999 C   0  0  0  0  0  0  0  0  0  0  0  0
  -10.5738    1.4888   22.6328 C   0  0  0  0  0  0  0  0  0  0  0  0
  -10.0319    1.3266   21.3017 C   0  0  0  0  0  0  0  0  0  0  0  0
   -9.0308    0.3502   21.1476 C   0  0  0  0  0  0  0  0  0  0  0  0
   -8.4699   -0.3208   22.1862 C   0  0  0  0  0  0  0  0  0  0  0  0
  2  3  1  0
  3  8  1  0
  3  9  1  1
  7 10  1  0
  8 16  1  0
 16 17  1  0
  5 18  1  0
 18 19  1  0
 19 20  2  3
 20 21  1  0
 21 22  2  3
 22 23  1  0
 23 24  2  0
  1  2  2  0
  2  4  1  0
  4  5  2  0
  5  7  1  0
  7  6  2  0
  6  1  1  0
 10 11  2  0
 11 12  1  0
 12 13  2  0
 13 14  1  0
 14 15  2  0
 15 10  1  0
M  END
$$$$
