No_4869-complexes_sdf/6BKW-FPZ/2024-09-17-14-21-01/
     RDKit          3D

 25 27  0  0  0  0  0  0  0  0999 V2000
   -7.9040    3.9820   27.1177 C   0  0  0  0  0  0  0  0  0  0  0  0
   -7.8663    4.8694   27.9238 C   0  0  0  0  0  0  0  0  0  0  0  0
   -9.0501    3.8017   26.2617 C   0  0  0  0  0  0  0  0  0  0  0  0
  -10.0189    4.7608   26.3707 C   0  0  0  0  0  0  0  0  0  0  0  0
   -8.6973    5.9722   27.8968 C   0  0  0  0  0  0  0  0  0  0  0  0
   -9.8216    5.8946   27.1241 C   0  0  0  0  0  0  0  0  0  0  0  0
   -9.1679    2.4430   25.2802 Cl  0  0  0  0  0  0  0  0  0  0  0  0
   -6.7683    2.6389   27.1685 Cl  0  0  0  0  0  0  0  0  0  0  0  0
  -11.0492    4.7316   25.5211 O   0  0  0  0  0  0  0  0  0  0  0  0
  -12.1470    4.0750   25.8303 C   0  0  0  0  0  0  0  0  0  0  0  0
  -12.4825    3.9185   27.0704 C   0  0  0  0  0  0  0  0  0  0  0  0
  -13.7442    3.4142   27.5085 C   0  0  0  0  0  0  0  0  0  0  0  0
  -14.0775    3.1699   28.8734 C   0  0  0  0  0  0  0  0  0  0  0  0
  -13.0435    3.4332   29.8168 C   0  0  0  0  0  0  0  0  0  0  0  0
  -11.7585    3.7620   29.4128 C   0  0  0  0  0  0  0  0  0  0  0  0
  -11.5008    3.9873   28.2325 C   0  0  0  0  0  0  0  0  0  0  0  0
  -13.2098    3.1411   31.2897 C   0  0  0  0  0  0  0  0  0  0  0  0
  -13.2832    4.1130   32.1844 N   0  0  0  0  0  0  0  0  0  0  0  0
  -13.2596    3.9543   33.5465 C   0  0  0  0  0  0  0  0  0  0  0  0
  -12.6403    4.9528   34.2808 C   0  0  0  0  0  0  0  0  0  0  0  0
  -12.5356    4.9293   35.7025 C   0  0  0  0  0  0  0  0  0  0  0  0
  -13.1575    3.8345   36.3536 C   0  0  0  0  0  0  0  0  0  0  0  0
  -14.0546    3.0352   34.2055 C   0  0  0  0  0  0  0  0  0  0  0  0
  -13.9242    2.8975   35.6275 C   0  0  0  0  0  0  0  0  0  0  0  0
  -13.2785    1.9471   31.6771 O   0  0  0  0  0  0  0  0  0  0  0  0
  3  7  1  0
  1  8  1  0
  4  9  1  0
  9 10  1  0
 14 17  1  0
 17 18  1  0
 18 19  1  0
 17 25  2  0
 10 11  1  0
 11 12  2  0
 12 13  1  0
 13 14  2  0
 14 15  1  0
 15 16  2  0
 16 11  1  0
  1  2  2  0
  2  5  1  0
  5  6  2  0
  6  4  1  0
  4  3  2  0
  3  1  1  0
 19 20  2  0
 20 21  1  0
 21 22  2  0
 22 24  1  0
 24 23  2  0
 23 19  1  0
M  END
$$$$
