No_4593-complexes_sdf/6BKW-FPZ/2024-09-17-14-21-01/
     RDKit          3D

 16 17  0  0  0  0  0  0  0  0999 V2000
   -7.2496    3.8871   27.4508 C   0  0  0  0  0  0  0  0  0  0  0  0
   -7.9379    4.9063   27.8518 C   0  0  0  0  0  0  0  0  0  0  0  0
   -9.3376    4.8647   27.7795 C   0  0  0  0  0  0  0  0  0  0  0  0
   -7.8544    2.6294   27.0414 C   0  0  0  0  0  0  0  0  0  0  0  0
   -9.2852    2.6570   27.0666 C   0  0  0  0  0  0  0  0  0  0  0  0
  -10.0126    3.7528   27.4890 C   0  0  0  0  0  0  0  0  0  0  0  0
  -11.4946    3.6924   27.5201 C   0  0  2  0  0  0  0  0  0  0  0  0
  -12.0181    2.6419   28.0792 C   0  0  0  0  0  0  0  0  0  0  0  0
  -11.1683    1.5746   28.6283 C   0  0  0  0  0  0  0  0  0  0  0  0
  -11.8488    0.4127   28.9596 C   0  0  0  0  0  0  0  0  0  0  0  0
  -13.1536    0.3594   29.1562 C   0  0  0  0  0  0  0  0  0  0  0  0
  -13.3784    2.4360   28.3477 C   0  0  0  0  0  0  0  0  0  0  0  0
  -13.9509    1.3784   28.8488 C   0  0  0  0  0  0  0  0  0  0  0  0
   -6.9672    1.3080   26.6741 Cl  0  0  0  0  0  0  0  0  0  0  0  0
   -7.2872    6.0675   28.1467 O   0  0  0  0  0  0  0  0  0  0  0  0
  -12.0286    3.9806   26.1365 C   0  0  0  0  0  0  0  0  0  0  0  0
  6  7  1  0
  4 14  1  0
  2 15  1  0
  7 16  1  6
  7  8  1  0
  1  2  2  0
  2  3  1  0
  3  6  2  0
  6  5  1  0
  5  4  2  0
  4  1  1  0
  8  9  2  0
  9 10  1  0
 10 11  2  0
 11 13  1  0
 13 12  2  0
 12  8  1  0
M  END
$$$$
