No_4504-complexes_sdf/6BKW-FPZ/2024-09-17-14-21-01/
     RDKit          3D

 40 44  0  0  0  0  0  0  0  0999 V2000
   -7.7129    4.2099   27.0854 C   0  0  0  0  0  0  0  0  0  0  0  0
   -8.2112    3.0637   26.9225 C   0  0  0  0  0  0  0  0  0  0  0  0
   -7.5138    1.9223   27.4249 C   0  0  0  0  0  0  0  0  0  0  0  0
   -8.5309    5.4147   26.8151 C   0  0  0  0  0  0  0  0  0  0  0  0
   -9.6817    5.2393   26.1100 C   0  0  0  0  0  0  0  0  0  0  0  0
  -10.1032    3.9957   25.8534 C   0  0  0  0  0  0  0  0  0  0  0  0
   -9.4035    2.8430   26.2573 C   0  0  0  0  0  0  0  0  0  0  0  0
   -8.0069    0.6506   27.2927 N   0  0  0  0  0  0  0  0  0  0  0  0
   -7.2168   -0.4310   27.4918 C   0  0  0  0  0  0  0  0  0  0  0  0
   -5.9408   -0.1958   27.9488 C   0  0  0  0  0  0  0  0  0  0  0  0
   -5.3832    1.0800   28.0657 C   0  0  0  0  0  0  0  0  0  0  0  0
   -6.0952    2.1104   27.7244 C   0  0  0  0  0  0  0  0  0  0  0  0
   -7.9915    6.7723   27.0898 C   0  0  0  0  0  0  0  0  0  0  0  0
   -8.6622    7.8624   26.7228 N   0  0  0  0  0  0  0  0  0  0  0  0
   -7.1311    6.8913   28.0834 O   0  0  0  0  0  0  0  0  0  0  0  0
   -5.1057   -1.4135   28.3100 C   0  0  0  0  0  0  0  0  0  0  0  0
   -4.2202   -1.3983   29.1657 C   0  0  0  0  0  0  0  0  0  0  0  0
   -3.4754   -2.5221   29.6143 C   0  0  0  0  0  0  0  0  0  0  0  0
   -3.7727   -3.6756   28.9930 C   0  0  0  0  0  0  0  0  0  0  0  0
   -5.4607   -2.5658   27.6264 C   0  0  0  0  0  0  0  0  0  0  0  0
   -4.7191   -3.7304   27.9898 C   0  0  0  0  0  0  0  0  0  0  0  0
  -11.3542    3.8396   25.0557 C   0  0  0  0  0  0  0  0  0  0  0  0
  -12.5073    3.5664   25.5866 N   0  0  0  0  0  0  0  0  0  0  0  0
  -13.6708    3.7621   25.1063 C   0  0  0  0  0  0  0  0  0  0  0  0
  -11.3149    3.9846   23.6550 C   0  0  0  0  0  0  0  0  0  0  0  0
  -12.4891    4.1834   22.9320 C   0  0  0  0  0  0  0  0  0  0  0  0
  -13.7061    4.0390   23.6780 C   0  0  0  0  0  0  0  0  0  0  0  0
  -12.5394    3.3819   27.1003 C   0  0  0  0  0  0  0  0  0  0  0  0
  -13.5482    3.1552   27.7695 C   0  0  0  0  0  0  0  0  0  0  0  0
  -13.4698    2.8295   29.1242 C   0  0  0  0  0  0  0  0  0  0  0  0
  -14.5552    2.5722   30.0067 C   0  0  0  0  0  0  0  0  0  0  0  0
  -14.3653    2.2263   31.3587 C   0  0  0  0  0  0  0  0  0  0  0  0
  -14.4112    2.8735   32.2957 C   0  0  0  0  0  0  0  0  0  0  0  0
  -14.0750    2.5111   33.7107 C   0  0  0  0  0  0  0  0  0  0  0  0
  -13.5374    3.3689   34.6849 C   0  0  0  0  0  0  0  0  0  0  0  0
  -13.5528    4.7765   34.3505 C   0  0  0  0  0  0  0  0  0  0  0  0
  -13.0987    5.7229   35.3428 C   0  0  0  0  0  0  0  0  0  0  0  0
  -12.2355    5.1995   36.3384 C   0  0  0  0  0  0  0  0  0  0  0  0
  -12.0773    3.8079   36.5701 C   0  0  0  0  0  0  0  0  0  0  0  0
  -12.6833    2.9160   35.6860 C   0  0  0  0  0  0  0  0  0  0  0  0
  2  3  1  0
  4 13  1  0
 13 14  1  0
 13 15  2  0
 10 16  1  0
  6 22  1  0
 22 23  1  0
 23 24  1  0
 22 25  1  0
 26 27  1  0
 23 28  1  0
 28 29  2  3
 29 30  1  0
 30 31  2  3
 31 32  1  0
 32 33  2  3
 33 34  1  0
 34 35  1  0
 25 26  1  0
 27 24  1  0
 16 17  2  0
 17 18  1  0
 18 19  2  0
 19 21  1  0
 21 20  2  0
 20 16  1  0
 35 36  2  0
 36 37  1  0
 37 38  2  0
 38 39  1  0
 39 40  2  0
 40 35  1  0
  1  2  2  0
  2  7  1  0
  7  6  2  0
  6  5  1  0
  5  4  2  0
  4  1  1  0
  3  8  2  0
  8  9  1  0
  9 10  2  0
 10 11  1  0
 11 12  2  0
 12  3  1  0
M  END
$$$$
