No_4888-complexes_sdf/6BKW-FPZ/2024-09-17-14-21-01/
     RDKit          3D

 29 33  0  0  0  0  0  0  0  0999 V2000
   -7.9040    3.9820   27.1177 C   0  0  0  0  0  0  0  0  0  0  0  0
   -9.0711    4.3164   27.0630 C   0  0  0  0  0  0  0  0  0  0  0  0
   -9.9692    3.7224   26.1073 C   0  0  0  0  0  0  0  0  0  0  0  0
   -7.4776    2.6994   26.6283 C   0  0  0  0  0  0  0  0  0  0  0  0
   -8.4406    1.9440   25.9776 C   0  0  0  0  0  0  0  0  0  0  0  0
   -9.6379    2.5001   25.6881 C   0  0  0  0  0  0  0  0  0  0  0  0
   -6.9751    4.6208   27.9552 O   0  0  0  0  0  0  0  0  0  0  0  0
  -10.5122    1.5664   24.8945 C   0  0  0  0  0  0  0  0  0  0  0  0
  -10.2997    0.4965   24.6607 C   0  0  0  0  0  0  0  0  0  0  0  0
   -8.9461   -0.0792   25.0315 C   0  0  0  0  0  0  0  0  0  0  0  0
   -8.0717    0.6314   25.6564 C   0  0  0  0  0  0  0  0  0  0  0  0
   -7.4789    5.7999   28.4300 C   0  0  0  0  0  0  0  0  0  0  0  0
   -9.5003    5.6069   27.6313 C   0  0  0  0  0  0  0  0  0  0  0  0
   -8.6352    6.3152   28.3018 C   0  0  0  0  0  0  0  0  0  0  0  0
   -8.6619   -1.5463   24.6460 C   0  0  0  0  0  0  0  0  0  0  0  0
   -8.4346   -1.8115   23.5169 C   0  0  0  0  0  0  0  0  0  0  0  0
   -8.0066   -3.1986   23.1016 C   0  0  0  0  0  0  0  0  0  0  0  0
   -7.9667   -4.1304   24.1011 C   0  0  0  0  0  0  0  0  0  0  0  0
   -8.5050   -2.4969   25.7104 C   0  0  0  0  0  0  0  0  0  0  0  0
   -8.1911   -3.7660   25.4359 C   0  0  0  0  0  0  0  0  0  0  0  0
  -11.6786    2.3610   24.4972 C   0  0  0  0  0  0  0  0  0  0  0  0
  -12.3105    1.8586   23.5060 N   0  0  0  0  0  0  0  0  0  0  0  0
  -12.7622    2.2890   22.5482 C   0  0  0  0  0  0  0  0  0  0  0  0
  -12.2692    2.5532   21.4809 C   0  0  0  0  0  0  0  0  0  0  0  0
  -10.8847    2.3483   21.3798 C   0  0  0  0  0  0  0  0  0  0  0  0
  -10.0160    3.3199   20.6606 C   0  0  0  0  0  0  0  0  0  0  0  0
  -10.6265    4.1436   19.7166 C   0  0  0  0  0  0  0  0  0  0  0  0
  -11.9954    4.3088   19.7440 C   0  0  0  0  0  0  0  0  0  0  0  0
  -12.7853    3.5957   20.5983 C   0  0  0  0  0  0  0  0  0  0  0  0
  1  7  1  0
  7 12  1  0
  2 13  1  0
 12 14  1  0
 13 14  2  0
 10 15  1  0
  8 21  1  0
 21 22  1  0
 22 23  1  0
 23 24  1  0
  6  8  2  0
  8  9  1  0
  9 10  2  0
 10 11  1  0
 11  5  2  0
 24 25  2  0
 25 26  1  0
 26 27  2  0
 27 28  1  0
 28 29  2  0
 29 24  1  0
  1  2  1  0
  2  3  2  0
  3  6  1  0
  6  5  1  0
  5  4  1  0
  4  1  2  0
 15 16  2  0
 16 17  1  0
 17 18  2  0
 18 20  1  0
 20 19  2  0
 19 15  1  0
M  END
$$$$
