No_4647-complexes_sdf/6BKW-FPZ/2024-09-17-14-21-01/
     RDKit          3D

 40 43  0  0  0  0  0  0  0  0999 V2000
   -7.9040    3.9820   27.1177 C   0  0  0  0  0  0  0  0  0  0  0  0
   -9.0711    4.3164   27.0630 C   0  0  0  0  0  0  0  0  0  0  0  0
   -9.8698    3.9665   25.9495 C   0  0  0  0  0  0  0  0  0  0  0  0
   -7.0332    4.5030   28.2025 C   0  0  0  0  0  0  0  0  0  0  0  0
   -9.4357    2.9501   25.1393 C   0  0  0  0  0  0  0  0  0  0  0  0
  -10.2810    2.6266   24.0411 C   0  0  0  0  0  0  0  0  0  0  0  0
   -5.7826    4.1144   28.2077 N   0  0  0  0  0  0  0  0  0  0  0  0
   -9.9677    1.5188   23.2485 C   0  0  0  0  0  0  0  0  0  0  0  0
   -8.8679    0.6842   23.6785 C   0  0  0  0  0  0  0  0  0  0  0  0
   -8.1833    0.9649   24.8329 C   0  0  0  0  0  0  0  0  0  0  0  0
   -8.4557    2.0300   25.6101 C   0  0  0  0  0  0  0  0  0  0  0  0
   -7.5445    2.5493   26.6301 C   0  0  0  0  0  0  0  0  0  0  0  0
   -7.4557    5.4420   28.9326 O   0  0  0  0  0  0  0  0  0  0  0  0
  -11.2069    3.3801   23.5368 F   0  0  0  0  0  0  0  0  0  0  0  0
   -8.5494   -0.5562   22.8789 C   0  0  0  0  0  0  0  0  0  0  0  0
   -7.3579   -1.0689   22.9746 C   0  0  0  0  0  0  0  0  0  0  0  0
   -6.4798   -0.5946   24.0111 C   0  0  0  0  0  0  0  0  0  0  0  0
   -6.9214    0.2081   25.0150 C   0  0  0  0  0  0  0  0  0  0  0  0
   -5.3811   -1.3612   24.3499 O   0  0  0  0  0  0  0  0  0  0  0  0
   -5.2622   -2.6461   24.4655 C   0  0  0  0  0  0  0  0  0  0  0  0
   -4.2571   -2.8382   25.4519 C   0  0  0  0  0  0  0  0  0  0  0  0
   -3.3679   -3.5026   25.0683 O   0  0  0  0  0  0  0  0  0  0  0  0
   -4.3294   -2.3686   26.6358 O   0  0  0  0  0  0  0  0  0  0  0  0
  -10.6184    1.2398   22.2054 F   0  0  0  0  0  0  0  0  0  0  0  0
   -3.7162   -2.5932   27.5924 C   0  0  2  0  0  0  0  0  0  0  0  0
   -4.2472   -2.8329   28.8777 C   0  0  0  0  0  0  0  0  0  0  0  0
   -3.7366   -3.2196   29.6521 O   0  0  0  0  0  0  0  0  0  0  0  0
   -5.5930   -2.3901   28.9874 N   0  0  0  0  0  0  0  0  0  0  0  0
   -6.3764   -2.5469   30.1861 C   0  0  0  0  0  0  0  0  0  0  0  0
   -7.8071   -2.5880   29.8820 C   0  0  0  0  0  0  0  0  0  0  0  0
   -8.6507   -2.9781   30.9047 C   0  0  0  0  0  0  0  0  0  0  0  0
   -8.1458   -3.0284   32.2758 C   0  0  0  0  0  0  0  0  0  0  0  0
   -6.7569   -2.8640   32.4578 C   0  0  0  0  0  0  0  0  0  0  0  0
   -5.9177   -2.6447   31.4347 C   0  0  0  0  0  0  0  0  0  0  0  0
   -9.1135   -3.3014   33.3479 C   0  0  0  0  0  0  0  0  0  0  0  0
   -8.6231   -2.9730   34.4898 F   0  0  0  0  0  0  0  0  0  0  0  0
   -9.4297   -4.6081   33.3622 F   0  0  0  0  0  0  0  0  0  0  0  0
  -10.2643   -2.5822   33.1180 F   0  0  0  0  0  0  0  0  0  0  0  0
   -2.6958   -1.3423   27.8135 C   0  0  0  0  0  0  0  0  0  0  0  0
   -3.2748   -0.0591   27.8717 C   0  0  0  0  0  0  0  0  0  0  0  0
  1  4  1  0
  4  7  1  0
  4 13  2  0
  6 14  1  0
 17 19  1  0
 19 20  1  0
 20 21  1  0
 21 22  2  0
 21 23  1  0
  8 24  1  0
 23 25  1  0
 25 26  1  0
 26 27  2  0
 26 28  1  0
 28 29  1  0
 32 35  1  0
 35 36  1  0
 35 37  1  0
 35 38  1  0
 25 39  1  1
 39 40  1  0
  5  6  1  0
  6  8  2  0
  8  9  1  0
 10 11  1  0
 29 30  2  0
 30 31  1  0
 31 32  2  0
 32 33  1  0
 33 34  2  0
 34 29  1  0
  9 10  2  0
 10 18  1  0
 18 17  2  0
 17 16  1  0
 16 15  2  0
 15  9  1  0
  1  2  2  0
  2  3  1  0
  3  5  2  0
  5 11  1  0
 11 12  2  0
 12  1  1  0
M  END
$$$$
