No_415-complexes_sdf/6BKW-FPZ/2024-09-17-14-21-01/
     RDKit          3D

 19 20  0  0  0  0  0  0  0  0999 V2000
   -7.2496    3.8871   27.4508 C   0  0  0  0  0  0  0  0  0  0  0  0
   -8.5096    4.0291   27.2770 C   0  0  0  0  0  0  0  0  0  0  0  0
   -9.3451    2.8786   26.9046 C   0  0  0  0  0  0  0  0  0  0  0  0
   -6.6065    2.5680   27.5073 C   0  0  0  0  0  0  0  0  0  0  0  0
   -7.4233    1.4858   27.2402 C   0  0  0  0  0  0  0  0  0  0  0  0
   -8.7362    1.6525   26.9989 C   0  0  0  0  0  0  0  0  0  0  0  0
   -9.1023    5.3710   27.2131 C   0  0  0  0  0  0  0  0  0  0  0  0
   -8.3463    6.4776   26.8511 C   0  0  0  0  0  0  0  0  0  0  0  0
   -8.5633    7.7879   27.2945 C   0  0  0  0  0  0  0  0  0  0  0  0
   -6.7925    0.1733   27.3020 C   0  0  0  0  0  0  0  0  0  0  0  0
   -7.3724   -0.8699   27.4424 N   0  0  0  0  0  0  0  0  0  0  0  0
   -5.3094    0.0993   27.1824 C   0  0  0  0  0  0  0  0  0  0  0  0
   -4.5308    0.6665   28.0008 C   0  0  0  0  0  0  0  0  0  0  0  0
   -3.0750    0.5152   27.9258 C   0  0  0  0  0  0  0  0  0  0  0  0
   -2.6721   -0.3111   27.2752 C   0  0  0  0  0  0  0  0  0  0  0  0
   -4.8003   -0.6997   26.1718 C   0  0  0  0  0  0  0  0  0  0  0  0
   -3.4697   -0.9171   26.1715 C   0  0  0  0  0  0  0  0  0  0  0  0
   -7.8335   -1.2765   28.6144 C   0  0  0  0  0  0  0  0  0  0  0  0
   -8.7481   -2.4590   28.6923 C   0  0  0  0  0  0  0  0  0  0  0  0
  2  7  1  0
  7  8  1  0
  8  9  2  0
  5 10  1  0
 10 11  2  3
 10 12  1  0
 11 18  1  0
 18 19  2  0
 12 13  2  0
 13 14  1  0
 14 15  2  0
 15 17  1  0
 17 16  2  0
 16 12  1  0
  1  2  2  0
  2  3  1  0
  3  6  2  0
  6  5  1  0
  5  4  2  0
  4  1  1  0
M  END
$$$$
