No_4761-complexes_sdf/6BKW-FPZ/2024-09-17-14-21-01/
     RDKit          3D

 27 30  0  0  0  0  0  0  0  0999 V2000
   -7.9040    3.9820   27.1177 C   0  0  0  0  0  0  0  0  0  0  0  0
   -7.8663    4.8694   27.9238 C   0  0  0  0  0  0  0  0  0  0  0  0
   -9.0501    3.8017   26.2617 C   0  0  0  0  0  0  0  0  0  0  0  0
  -10.0189    4.7608   26.3707 C   0  0  0  0  0  0  0  0  0  0  0  0
   -8.6973    5.9722   27.8968 C   0  0  0  0  0  0  0  0  0  0  0  0
   -9.8216    5.8946   27.1241 C   0  0  0  0  0  0  0  0  0  0  0  0
   -8.9544    2.5594   25.4484 C   0  0  0  0  0  0  0  0  0  0  0  0
   -9.8208    1.6456   25.8717 C   0  0  0  0  0  0  0  0  0  0  0  0
   -9.6168    0.4273   25.3465 C   0  0  0  0  0  0  0  0  0  0  0  0
   -8.3786    0.0290   25.2558 C   0  0  0  0  0  0  0  0  0  0  0  0
   -7.6201   -0.5701   26.3218 C   0  0  0  0  0  0  0  0  0  0  0  0
   -6.2726   -0.6583   26.3689 C   0  0  0  0  0  0  0  0  0  0  0  0
   -8.3617   -0.8382   27.5504 C   0  0  0  0  0  0  0  0  0  0  0  0
   -7.6205   -1.4855   28.6270 C   0  0  0  0  0  0  0  0  0  0  0  0
   -5.5313   -1.2252   27.4176 C   0  0  0  0  0  0  0  0  0  0  0  0
   -6.2544   -1.6057   28.6129 C   0  0  0  0  0  0  0  0  0  0  0  0
  -11.3605    1.9846   25.7372 C   0  0  0  0  0  0  0  0  0  0  0  0
  -10.5536   -0.5241   24.8756 C   0  0  0  0  0  0  0  0  0  0  0  0
  -11.8654   -0.1936   24.9194 C   0  0  0  0  0  0  0  0  0  0  0  0
  -12.3276    1.0646   25.5692 C   0  0  0  0  0  0  0  0  0  0  0  0
   -7.8488   -0.4293   24.0813 O   0  0  0  0  0  0  0  0  0  0  0  0
   -5.5740   -2.1729   29.7805 C   0  0  0  0  0  0  0  0  0  0  0  0
   -4.6589   -3.0181   29.7221 C   0  0  0  0  0  0  0  0  0  0  0  0
   -3.9175   -3.3990   30.9216 C   0  0  0  0  0  0  0  0  0  0  0  0
   -4.2169   -2.8122   32.1679 C   0  0  0  0  0  0  0  0  0  0  0  0
   -5.8603   -1.4708   31.0779 C   0  0  0  0  0  0  0  0  0  0  0  0
   -5.1971   -1.7698   32.2117 C   0  0  0  0  0  0  0  0  0  0  0  0
  3  7  1  0
  7  8  1  0
  9 10  1  0
 10 11  1  0
 10 21  2  0
 16 22  1  0
 11 12  2  0
 12 15  1  0
 15 16  2  0
 16 14  1  0
 14 13  2  0
 13 11  1  0
  8  9  2  0
  9 18  1  0
 18 19  2  0
 19 20  1  0
 20 17  2  0
 17  8  1  0
 22 23  2  0
 23 24  1  0
 24 25  2  0
 25 27  1  0
 27 26  2  0
 26 22  1  0
  1  2  2  0
  2  5  1  0
  5  6  2  0
  6  4  1  0
  4  3  2  0
  3  1  1  0
M  END
$$$$
