No_4995-complexes_sdf/6BKW-FPZ/2024-09-17-14-21-01/
     RDKit          3D

 14 15  0  0  0  0  0  0  0  0999 V2000
   -7.7129    4.2099   27.0854 C   0  0  0  0  0  0  0  0  0  0  0  0
   -8.9133    4.4736   27.0998 C   0  0  0  0  0  0  0  0  0  0  0  0
   -9.4643    5.5426   27.7628 C   0  0  0  0  0  0  0  0  0  0  0  0
   -7.1220    4.1625   28.1614 C   0  0  0  0  0  0  0  0  0  0  0  0
   -7.2976    5.3836   28.9985 C   0  0  0  0  0  0  0  0  0  0  0  0
   -8.5684    5.9639   28.8530 C   0  0  0  0  0  0  0  0  0  0  0  0
   -9.8129    4.0616   25.8522 C   0  0  0  0  0  0  0  0  0  0  0  0
   -9.9966    2.7778   25.5544 C   0  0  0  0  0  0  0  0  0  0  0  0
   -9.5990    1.8628   26.2699 C   0  0  0  0  0  0  0  0  0  0  0  0
   -9.2013    1.9578   27.6032 C   0  0  0  0  0  0  0  0  0  0  0  0
   -9.5890    0.4145   25.6976 C   0  0  0  0  0  0  0  0  0  0  0  0
   -9.4126   -0.5682   26.4345 C   0  0  0  0  0  0  0  0  0  0  0  0
   -9.0862    0.5888   28.4304 C   0  0  0  0  0  0  0  0  0  0  0  0
   -9.1522   -0.5295   27.8076 C   0  0  0  0  0  0  0  0  0  0  0  0
  2  7  1  0
  7  8  1  0
  8  9  1  0
  9 10  2  0
 10 13  1  0
 13 14  2  0
 14 12  1  0
 12 11  2  0
 11  9  1  0
  1  2  2  0
  2  3  1  0
  3  6  2  0
  6  5  1  0
  5  4  2  0
  4  1  1  0
M  END
$$$$
