No_4098-complexes_sdf/6BKW-FPZ/2024-09-17-14-21-01/
     RDKit          3D

 16 17  0  0  0  0  0  0  0  0999 V2000
   -7.9040    3.9820   27.1177 C   0  0  2  0  0  0  0  0  0  0  0  0
   -8.2057    2.8231   26.8733 C   0  0  0  0  0  0  0  0  0  0  0  0
   -7.0130    4.3706   28.1140 C   0  0  0  0  0  0  0  0  0  0  0  0
   -9.4741    2.4344   26.3718 C   0  0  0  0  0  0  0  0  0  0  0  0
   -9.7874    1.0289   26.1837 C   0  0  0  0  0  0  0  0  0  0  0  0
   -6.9364    5.6815   28.5253 N   0  0  0  0  0  0  0  0  0  0  0  0
   -8.8237    0.0960   26.5973 C   0  0  0  0  0  0  0  0  0  0  0  0
   -7.6341    0.4487   27.1410 C   0  0  0  0  0  0  0  0  0  0  0  0
   -7.2663    1.7840   27.3460 C   0  0  0  0  0  0  0  0  0  0  0  0
   -8.6936    5.2032   26.9156 C   0  0  1  0  0  0  0  0  0  0  0  0
   -7.9996    6.1958   27.6336 N   0  0  0  0  0  0  0  0  0  0  0  0
   -9.6784    5.4353   26.0137 C   0  0  0  0  0  0  0  0  0  0  0  0
   -6.6878   -0.6228   27.5978 C   0  0  2  0  0  0  0  0  0  0  0  0
   -6.9112   -2.0186   28.2564 Cl  0  0  0  0  0  0  0  0  0  0  0  0
   -5.2215   -0.2772   27.4800 C   0  0  0  0  0  0  0  0  0  0  0  0
   -4.6737   -0.5528   26.5150 O   0  0  0  0  0  0  0  0  0  0  0  0
  1  2  1  1
  1  3  1  0
  3  6  2  0
  1 10  1  0
  6 11  1  0
 10 11  1  0
 10 12  1  6
  8 13  1  0
 13 14  1  1
 13 15  1  0
 15 16  2  0
  2  4  2  0
  4  5  1  0
  5  7  2  0
  7  8  1  0
  8  9  2  0
  9  2  1  0
M  END
$$$$
