No_4764-complexes_sdf/6BKW-FPZ/2024-09-17-14-21-01/
     RDKit          3D

 11 11  0  0  0  0  0  0  0  0999 V2000
   -7.2496    3.8871   27.4508 C   0  0  0  0  0  0  0  0  0  0  0  0
   -8.5096    4.0291   27.2770 C   0  0  0  0  0  0  0  0  0  0  0  0
   -9.3451    2.8786   26.9046 C   0  0  0  0  0  0  0  0  0  0  0  0
  -10.6709    3.0505   26.6789 C   0  0  0  0  0  0  0  0  0  0  0  0
   -6.5987    2.6095   27.5132 C   0  0  0  0  0  0  0  0  0  0  0  0
   -7.3529    1.5121   27.2159 C   0  0  0  0  0  0  0  0  0  0  0  0
   -8.6970    1.6824   26.9913 C   0  0  0  0  0  0  0  0  0  0  0  0
  -11.4776    3.5624   27.6741 C   0  0  0  0  0  0  0  0  0  0  0  0
  -12.8624    3.8756   27.5368 C   0  0  0  0  0  0  0  0  0  0  0  0
  -13.6130    4.5533   28.5260 C   0  0  0  0  0  0  0  0  0  0  0  0
   -4.9360    2.5083   27.9002 Cl  0  0  0  0  0  0  0  0  0  0  0  0
  1  2  1  0
  2  3  1  0
  3  4  2  3
  1  5  1  0
  5  6  1  0
  3  7  1  0
  6  7  1  0
  4  8  1  0
  8  9  2  3
  9 10  1  0
  5 11  1  0
M  END
$$$$
