No_4801-complexes_sdf/6BKW-FPZ/2024-09-17-14-21-01/
     RDKit          3D

 22 26  0  0  0  0  0  0  0  0999 V2000
   -7.7129    4.2099   27.0854 C   0  0  0  0  0  0  0  0  0  0  0  0
   -7.7814    5.1722   27.8972 C   0  0  0  0  0  0  0  0  0  0  0  0
   -8.8776    3.8408   26.3416 C   0  0  0  0  0  0  0  0  0  0  0  0
   -9.9844    4.6492   26.4743 C   0  0  0  0  0  0  0  0  0  0  0  0
   -8.7830    6.1594   27.8870 C   0  0  0  0  0  0  0  0  0  0  0  0
   -9.9269    5.8191   27.1183 C   0  0  0  0  0  0  0  0  0  0  0  0
   -8.8618    2.6242   25.5633 C   0  0  0  0  0  0  0  0  0  0  0  0
   -9.6825    2.5249   24.5651 N   0  0  0  0  0  0  0  0  0  0  0  0
  -10.3450    3.5417   24.0514 C   0  0  2  0  0  0  0  0  0  0  0  0
  -10.7898    4.5458   25.2464 N   0  0  0  0  0  0  0  0  0  0  0  0
   -9.6140    1.4152   23.6590 C   0  0  0  0  0  0  0  0  0  0  0  0
   -8.9000    0.3681   23.9966 C   0  0  0  0  0  0  0  0  0  0  0  0
  -10.1591    1.5034   22.3713 C   0  0  0  0  0  0  0  0  0  0  0  0
   -8.7265   -0.7552   23.1504 C   0  0  0  0  0  0  0  0  0  0  0  0
  -10.0428    0.4192   21.4653 C   0  0  0  0  0  0  0  0  0  0  0  0
   -9.3228   -0.6774   21.8571 C   0  0  0  0  0  0  0  0  0  0  0  0
   -9.1870   -1.7823   20.8979 C   0  0  0  0  0  0  0  0  0  0  0  0
   -9.9171   -1.8310   19.8031 C   0  0  0  0  0  0  0  0  0  0  0  0
  -10.7342   -0.6735   19.5226 C   0  0  0  0  0  0  0  0  0  0  0  0
  -10.7869    0.4339   20.3094 C   0  0  0  0  0  0  0  0  0  0  0  0
  -11.3472    3.7945   22.7863 S   0  0  0  0  0  0  0  0  0  0  0  0
  -10.9698    2.6531   21.9904 C   0  0  0  0  0  0  0  0  0  0  0  0
  3  7  1  0
  7  8  1  0
  8  9  1  0
  4 10  1  0
  9 10  1  1
  8 11  1  0
  9 21  1  0
 13 22  1  0
 21 22  2  0
 11 12  2  0
 12 14  1  0
 14 16  2  0
 15 13  2  0
 13 11  1  0
 15 16  1  0
 16 17  1  0
 17 18  2  0
 18 19  1  0
 19 20  2  0
 20 15  1  0
  1  2  2  0
  2  5  1  0
  5  6  2  0
  6  4  1  0
  4  3  2  0
  3  1  1  0
M  END
$$$$
