No_4149-complexes_sdf/6BKW-FPZ/2024-09-17-14-21-01/
     RDKit          3D

 24 26  0  0  0  0  0  0  0  0999 V2000
   -7.7129    4.2099   27.0854 C   0  0  0  0  0  0  0  0  0  0  0  0
   -8.2112    3.0637   26.9225 C   0  0  0  0  0  0  0  0  0  0  0  0
   -8.5108    5.3904   26.9436 C   0  0  0  0  0  0  0  0  0  0  0  0
   -9.7256    5.1955   26.3518 C   0  0  0  0  0  0  0  0  0  0  0  0
   -9.4995    2.8258   26.4878 C   0  0  0  0  0  0  0  0  0  0  0  0
  -10.2542    3.9691   26.2055 C   0  0  0  0  0  0  0  0  0  0  0  0
   -7.8138    6.9227   27.2348 Cl  0  0  0  0  0  0  0  0  0  0  0  0
   -7.3640    1.8353   27.2492 C   0  0  0  0  0  0  0  0  0  0  0  0
   -7.7975    0.5282   27.1294 C   0  0  0  0  0  0  0  0  0  0  0  0
   -6.9646   -0.4801   27.4014 C   0  0  0  0  0  0  0  0  0  0  0  0
   -5.6363   -0.2191   27.8100 C   0  0  0  0  0  0  0  0  0  0  0  0
   -5.1966    1.0895   27.9740 C   0  0  0  0  0  0  0  0  0  0  0  0
   -5.9801    2.0928   27.6765 C   0  0  0  0  0  0  0  0  0  0  0  0
   -4.7298   -1.3558   28.1686 C   0  0  0  0  0  0  0  0  0  0  0  0
   -4.9347   -2.2397   28.7570 C   0  0  0  0  0  0  0  0  0  0  0  0
   -4.5338   -3.0431   29.4236 C   0  0  0  0  0  0  0  0  0  0  0  0
   -2.9932   -3.0354   29.4600 C   0  0  0  0  0  0  0  0  0  0  0  0
   -2.4259   -1.9772   28.7147 C   0  0  0  0  0  0  0  0  0  0  0  0
   -3.2512   -0.9682   28.2149 C   0  0  0  0  0  0  0  0  0  0  0  0
  -11.5575    3.9995   25.5446 C   0  0  0  0  0  0  0  0  0  0  0  0
  -11.8371    3.8957   24.1336 C   0  0  0  0  0  0  0  0  0  0  0  0
  -10.7892    4.0700   23.3170 C   0  0  0  0  0  0  0  0  0  0  0  0
  -10.9260    4.1326   21.8863 C   0  0  0  0  0  0  0  0  0  0  0  0
   -9.8284    4.2104   21.0476 C   0  0  0  0  0  0  0  0  0  0  0  0
  3  7  1  0
  2  8  1  0
 11 14  1  0
  6 20  1  0
 20 21  1  0
 21 22  1  0
 22 23  2  3
 23 24  1  0
 14 15  2  0
 15 16  1  0
 16 17  2  0
 17 18  1  0
 18 19  2  0
 19 14  1  0
  8  9  2  0
  9 10  1  0
 10 11  2  0
 11 12  1  0
 12 13  2  0
 13  8  1  0
  1  2  2  0
  2  5  1  0
  5  6  2  0
  6  4  1  0
  4  3  2  0
  3  1  1  0
M  END
$$$$
