No_4227-complexes_sdf/6BKW-FPZ/2024-09-17-14-21-01/
     RDKit          3D

 16 17  0  0  0  0  0  0  0  0999 V2000
   -7.9040    3.9820   27.1177 C   0  0  0  0  0  0  0  0  0  0  0  0
   -8.2057    2.8231   26.8733 C   0  0  0  0  0  0  0  0  0  0  0  0
   -7.4766    1.7477   27.4593 C   0  0  0  0  0  0  0  0  0  0  0  0
   -8.7468    5.1251   26.6967 C   0  0  0  0  0  0  0  0  0  0  0  0
   -9.7234    4.8589   25.8202 C   0  0  0  0  0  0  0  0  0  0  0  0
   -9.9711    3.5858   25.4266 C   0  0  0  0  0  0  0  0  0  0  0  0
   -9.2266    2.4957   25.9600 C   0  0  0  0  0  0  0  0  0  0  0  0
   -6.2367    1.9389   27.9277 N   0  0  0  0  0  0  0  0  0  0  0  0
   -7.8893    0.3880   27.4291 C   0  0  0  0  0  0  0  0  0  0  0  0
   -5.3997    0.9103   28.3400 C   0  0  0  0  0  0  0  0  0  0  0  0
   -5.8304   -0.3556   28.3910 C   0  0  0  0  0  0  0  0  0  0  0  0
   -7.1110   -0.5985   27.9596 C   0  0  0  0  0  0  0  0  0  0  0  0
   -8.4197    6.5146   27.0995 C   0  0  0  0  0  0  0  0  0  0  0  0
   -8.0960    6.8653   28.2588 N   0  0  0  0  0  0  0  0  0  0  0  0
   -8.6039    7.5157   26.1964 N   0  0  0  0  0  0  0  0  0  0  0  0
   -4.1086    1.3056   28.7541 N   0  0  0  0  0  0  0  0  0  0  0  0
  2  3  1  0
  4 13  1  0
 13 14  2  0
 13 15  1  0
 10 16  1  0
  3  8  2  0
  8 10  1  0
 10 11  2  0
 11 12  1  0
 12  9  2  0
  9  3  1  0
  1  2  2  0
  2  7  1  0
  7  6  2  0
  6  5  1  0
  5  4  2  0
  4  1  1  0
M  END
$$$$
