No_4870-complexes_sdf/6BKW-FPZ/2024-09-17-14-21-01/
     RDKit          3D

 25 27  0  0  0  0  0  0  0  0999 V2000
   -7.7129    4.2099   27.0854 C   0  0  0  0  0  0  0  0  0  0  0  0
   -8.2112    3.0637   26.9225 C   0  0  0  0  0  0  0  0  0  0  0  0
   -8.5108    5.3904   26.9436 C   0  0  0  0  0  0  0  0  0  0  0  0
   -9.7256    5.1955   26.3518 C   0  0  0  0  0  0  0  0  0  0  0  0
   -9.4995    2.8258   26.4878 C   0  0  0  0  0  0  0  0  0  0  0  0
  -10.2542    3.9691   26.2055 C   0  0  0  0  0  0  0  0  0  0  0  0
   -7.8138    6.9227   27.2348 Cl  0  0  0  0  0  0  0  0  0  0  0  0
   -7.3640    1.8353   27.2492 C   0  0  0  0  0  0  0  0  0  0  0  0
   -7.7975    0.5282   27.1294 C   0  0  0  0  0  0  0  0  0  0  0  0
   -6.9646   -0.4801   27.4014 C   0  0  0  0  0  0  0  0  0  0  0  0
   -5.6363   -0.2191   27.8100 C   0  0  0  0  0  0  0  0  0  0  0  0
   -5.1966    1.0895   27.9740 C   0  0  0  0  0  0  0  0  0  0  0  0
   -5.9801    2.0928   27.6765 C   0  0  0  0  0  0  0  0  0  0  0  0
   -3.9243    1.3429   28.3553 O   0  0  0  0  0  0  0  0  0  0  0  0
  -11.6051    3.8310   25.6222 C   0  0  2  0  0  0  0  0  0  0  0  0
  -12.6710    3.8286   26.4626 C   0  0  0  0  0  0  0  0  0  0  0  0
  -13.9721    3.9803   26.0241 C   0  0  0  0  0  0  0  0  0  0  0  0
  -15.0678    4.1552   26.9061 C   0  0  0  0  0  0  0  0  0  0  0  0
  -14.8190    4.1744   28.3011 C   0  0  0  0  0  0  0  0  0  0  0  0
  -13.5436    4.0386   28.7866 C   0  0  0  0  0  0  0  0  0  0  0  0
  -12.4847    3.9557   27.9270 C   0  0  0  0  0  0  0  0  0  0  0  0
  -11.7702    3.6355   24.2495 C   0  0  0  0  0  0  0  0  0  0  0  0
  -11.1040    2.7479   23.6101 C   0  0  0  0  0  0  0  0  0  0  0  0
  -10.9348    2.8082   22.2824 C   0  0  0  0  0  0  0  0  0  0  0  0
  -11.6332    3.7723   21.5240 C   0  0  0  0  0  0  0  0  0  0  0  0
  3  7  1  0
  2  8  1  0
 12 14  1  0
  6 15  1  0
 15 16  1  0
 15 22  1  1
 22 23  1  0
 23 24  2  3
 24 25  1  0
  8  9  2  0
  9 10  1  0
 10 11  2  0
 11 12  1  0
 12 13  2  0
 13  8  1  0
  1  2  2  0
  2  5  1  0
  5  6  2  0
  6  4  1  0
  4  3  2  0
  3  1  1  0
 16 17  2  0
 17 18  1  0
 18 19  2  0
 19 20  1  0
 20 21  2  0
 21 16  1  0
M  END
$$$$
