No_4752-complexes_sdf/6BKW-FPZ/2024-09-17-14-21-01/
     RDKit          3D

 18 19  0  0  0  0  0  0  0  0999 V2000
   -7.7129    4.2099   27.0854 C   0  0  0  0  0  0  0  0  0  0  0  0
   -8.9133    4.4736   27.0998 C   0  0  0  0  0  0  0  0  0  0  0  0
   -9.7937    3.7368   26.2091 C   0  0  0  0  0  0  0  0  0  0  0  0
   -6.8266    5.0441   28.0594 C   0  0  0  0  0  0  0  0  0  0  0  0
   -9.2322    2.6276   25.6126 C   0  0  0  0  0  0  0  0  0  0  0  0
   -7.9794    2.1924   25.9863 C   0  0  0  0  0  0  0  0  0  0  0  0
   -7.2411    2.9387   26.9009 C   0  0  0  0  0  0  0  0  0  0  0  0
  -10.0593    1.7685   24.7435 C   0  0  0  0  0  0  0  0  0  0  0  0
   -9.4294    1.0407   23.8340 C   0  0  0  0  0  0  0  0  0  0  0  0
  -10.1450    0.3712   22.8515 C   0  0  0  0  0  0  0  0  0  0  0  0
  -11.5261    0.4576   22.7805 C   0  0  0  0  0  0  0  0  0  0  0  0
  -11.4430    1.7209   24.7701 C   0  0  0  0  0  0  0  0  0  0  0  0
  -12.1543    1.1376   23.7634 C   0  0  0  0  0  0  0  0  0  0  0  0
   -9.4840    5.8371   27.4835 C   0  0  0  0  0  0  0  0  0  0  0  0
  -13.4825    1.1222   23.7306 F   0  0  0  0  0  0  0  0  0  0  0  0
  -10.2399    5.8055   28.4827 F   0  0  0  0  0  0  0  0  0  0  0  0
  -10.0558    6.5379   26.4939 F   0  0  0  0  0  0  0  0  0  0  0  0
   -8.4874    6.7359   27.8648 F   0  0  0  0  0  0  0  0  0  0  0  0
  1  4  1  0
  5  8  1  0
  2 14  1  0
 13 15  1  0
 14 16  1  0
 14 17  1  0
 14 18  1  0
  8  9  2  0
  9 10  1  0
 10 11  2  0
 11 13  1  0
 13 12  2  0
 12  8  1  0
  1  2  2  0
  2  3  1  0
  3  5  2  0
  5  6  1  0
  6  7  2  0
  7  1  1  0
M  END
$$$$
