No_4932-complexes_sdf/6BKW-FPZ/2024-09-17-14-21-01/
     RDKit          3D

 28 31  0  0  0  0  0  0  0  0999 V2000
   -7.7129    4.2099   27.0854 C   0  0  0  0  0  0  0  0  0  0  0  0
   -7.7814    5.1722   27.8972 C   0  0  0  0  0  0  0  0  0  0  0  0
   -8.8998    3.8713   26.3707 C   0  0  0  0  0  0  0  0  0  0  0  0
   -9.8197    4.2636   26.6487 C   0  0  0  0  0  0  0  0  0  0  0  0
  -10.0564    5.4056   27.4736 C   0  0  0  0  0  0  0  0  0  0  0  0
   -8.9370    5.9018   28.1282 C   0  0  0  0  0  0  0  0  0  0  0  0
   -8.6809    2.6948   25.5385 O   0  0  0  0  0  0  0  0  0  0  0  0
   -8.4645    1.5010   26.1508 C   0  0  0  0  0  0  0  0  0  0  0  0
   -8.3390    0.4633   25.3002 C   0  0  0  0  0  0  0  0  0  0  0  0
   -8.0107   -0.8059   25.8645 C   0  0  0  0  0  0  0  0  0  0  0  0
   -7.8528   -0.9393   27.2726 C   0  0  0  0  0  0  0  0  0  0  0  0
   -8.0244    0.2181   28.0555 C   0  0  0  0  0  0  0  0  0  0  0  0
   -8.2753    1.4306   27.5606 C   0  0  0  0  0  0  0  0  0  0  0  0
   -7.5074   -2.5957   28.0508 Br  0  0  0  0  0  0  0  0  0  0  0  0
  -11.0150    3.8889   25.9156 O   0  0  0  0  0  0  0  0  0  0  0  0
  -11.1551    3.0426   25.3255 C   0  0  0  0  0  0  0  0  0  0  0  0
  -12.1020    2.1872   25.5440 C   0  0  0  0  0  0  0  0  0  0  0  0
  -12.8803    2.4476   26.6695 C   0  0  0  0  0  0  0  0  0  0  0  0
  -13.9445    1.5124   27.1488 C   0  0  0  0  0  0  0  0  0  0  0  0
  -12.3852    0.9092   24.9680 C   0  0  0  0  0  0  0  0  0  0  0  0
  -13.3030    0.0023   25.3858 C   0  0  0  0  0  0  0  0  0  0  0  0
  -14.0864    0.3214   26.5150 C   0  0  0  0  0  0  0  0  0  0  0  0
  -11.3522    3.5366   23.7647 C   0  0  0  0  0  0  0  0  0  0  0  0
  -10.8351    2.8626   22.7326 C   0  0  0  0  0  0  0  0  0  0  0  0
  -10.8641    3.4104   21.4239 C   0  0  0  0  0  0  0  0  0  0  0  0
  -11.2987    4.7586   21.2575 C   0  0  0  0  0  0  0  0  0  0  0  0
  -11.7575    5.4606   22.4212 C   0  0  0  0  0  0  0  0  0  0  0  0
  -11.7801    4.8712   23.6466 C   0  0  0  0  0  0  0  0  0  0  0  0
  3  7  1  0
  7  8  1  0
 11 14  1  0
  4 15  1  0
 15 16  1  0
 16 23  1  0
 16 17  1  0
 17 18  2  0
 18 19  1  0
 19 22  2  0
 22 21  1  0
 21 20  2  0
 20 17  1  0
 23 24  2  0
 24 25  1  0
 25 26  2  0
 26 27  1  0
 27 28  2  0
 28 23  1  0
  1  2  2  0
  2  6  1  0
  6  5  2  0
  5  4  1  0
  4  3  2  0
  3  1  1  0
  8  9  2  0
  9 10  1  0
 10 11  2  0
 11 12  1  0
 12 13  2  0
 13  8  1  0
M  END
$$$$
