No_4696-complexes_sdf/6BKW-FPZ/2024-09-17-14-21-01/
     RDKit          3D

 29 30  0  0  0  0  0  0  0  0999 V2000
   -7.2496    3.8871   27.4508 C   0  0  0  0  0  0  0  0  0  0  0  0
   -7.6161    2.7143   27.1523 C   0  0  0  0  0  0  0  0  0  0  0  0
   -8.8302    2.4659   26.5056 C   0  0  0  0  0  0  0  0  0  0  0  0
   -8.1584    5.0090   27.3234 C   0  0  0  0  0  0  0  0  0  0  0  0
   -9.3788    4.7965   26.7695 C   0  0  0  0  0  0  0  0  0  0  0  0
   -9.7028    3.5649   26.3276 C   0  0  0  0  0  0  0  0  0  0  0  0
   -6.5671    1.3685   27.4084 Cl  0  0  0  0  0  0  0  0  0  0  0  0
   -7.7205    6.2551   27.7266 O   0  0  0  0  0  0  0  0  0  0  0  0
  -11.0143    3.3628   25.6708 C   0  0  0  0  0  0  0  0  0  0  0  0
  -11.2290    2.2525   25.0413 C   0  0  0  0  0  0  0  0  0  0  0  0
  -10.2928    1.3041   25.0328 C   0  0  0  0  0  0  0  0  0  0  0  0
   -9.1480    1.2637   25.8483 C   0  0  0  0  0  0  0  0  0  0  0  0
   -7.9069    7.3234   26.8349 C   0  0  0  0  0  0  0  0  0  0  0  0
  -12.4935    2.0623   24.2620 C   0  0  1  0  0  0  0  0  0  0  0  0
  -13.6060    1.8739   24.9212 C   0  0  0  0  0  0  0  0  0  0  0  0
  -12.4858    2.1532   22.8542 C   0  0  0  0  0  0  0  0  0  0  0  0
  -13.7367    1.7990   26.2171 C   0  0  0  0  0  0  0  0  0  0  0  0
  -14.1699    1.7591   27.1564 C   0  0  0  0  0  0  0  0  0  0  0  0
  -14.3292    1.6841   28.5672 C   0  0  0  0  0  0  0  0  0  0  0  0
  -11.3907    2.5083   22.1766 C   0  0  0  0  0  0  0  0  0  0  0  0
  -10.2191    3.0203   22.8437 C   0  0  0  0  0  0  0  0  0  0  0  0
  -13.8196    1.8846   29.6925 C   0  0  0  0  0  0  0  0  0  0  0  0
  -12.7045    2.7887   29.8965 C   0  0  0  0  0  0  0  0  0  0  0  0
  -12.7233    3.8583   30.8441 C   0  0  0  0  0  0  0  0  0  0  0  0
  -13.4723    3.6358   32.0756 C   0  0  0  0  0  0  0  0  0  0  0  0
  -14.5291    2.6585   31.9194 C   0  0  0  0  0  0  0  0  0  0  0  0
  -14.6903    1.9190   30.8232 C   0  0  0  0  0  0  0  0  0  0  0  0
  -15.6138    0.9653   30.3255 C   0  0  0  0  0  0  0  0  0  0  0  0
  -14.9585    1.3725   31.6890 Br  0  0  0  0  0  0  0  0  0  0  0  0
  2  7  1  0
  4  8  1  0
  8 13  1  0
 14 10  1  1
 14 15  1  0
 14 16  1  0
 15 17  2  3
 17 18  1  0
 18 19  2  3
 16 20  2  3
 20 21  1  0
 19 22  1  0
 22 23  2  3
 23 24  1  0
 24 25  2  3
 25 26  1  0
 26 27  2  3
 27 28  1  0
 27 29  1  0
  1  2  2  0
  2  3  1  0
  6  5  1  0
  5  4  2  0
  4  1  1  0
  3  6  2  0
  6  9  1  0
  9 10  2  0
 10 11  1  0
 11 12  2  0
 12  3  1  0
M  END
$$$$
