No_4025-complexes_sdf/6BKW-FPZ/2024-09-17-14-21-01/
     RDKit          3D

 34 39  0  0  0  0  0  0  0  0999 V2000
   -7.9040    3.9820   27.1177 C   0  0  0  0  0  0  0  0  0  0  0  0
   -7.8663    4.8694   27.9238 C   0  0  0  0  0  0  0  0  0  0  0  0
   -9.0491    3.8523   26.2542 C   0  0  0  0  0  0  0  0  0  0  0  0
   -8.7661    5.9491   27.9690 C   0  0  0  0  0  0  0  0  0  0  0  0
   -9.9295    4.8502   26.2323 C   0  0  0  0  0  0  0  0  0  0  0  0
   -9.8077    5.9288   27.0933 C   0  0  0  0  0  0  0  0  0  0  0  0
   -9.0726    2.7074   25.3087 C   0  0  0  0  0  0  0  0  0  0  0  0
  -10.0632    2.7302   24.3178 C   0  0  0  0  0  0  0  0  0  0  0  0
  -10.9336    3.8766   24.2566 C   0  0  0  0  0  0  0  0  0  0  0  0
  -10.9057    4.8221   25.1699 C   0  0  0  0  0  0  0  0  0  0  0  0
  -11.9472    3.8184   23.1938 C   0  0  2  0  0  0  0  0  0  0  0  0
  -11.5819    4.1069   22.0086 C   0  0  0  0  0  0  0  0  0  0  0  0
  -11.0299    3.2280   21.2857 C   0  0  0  0  0  0  0  0  0  0  0  0
  -10.8753    1.9056   21.6541 C   0  0  0  0  0  0  0  0  0  0  0  0
  -10.5841    0.9766   20.8221 C   0  0  0  0  0  0  0  0  0  0  0  0
  -10.3143   -0.3654   21.2686 C   0  0  0  0  0  0  0  0  0  0  0  0
  -10.2504   -0.5946   22.6059 C   0  0  0  0  0  0  0  0  0  0  0  0
  -10.5163    0.3537   23.4698 C   0  0  0  0  0  0  0  0  0  0  0  0
   -9.9467    1.9008   23.2059 C   0  0  0  0  0  0  0  0  0  0  0  0
   -6.8945    2.8393   27.2455 C   0  0  0  0  0  0  0  0  0  0  0  0
   -7.2808    1.4664   27.4103 C   0  0  0  0  0  0  0  0  0  0  0  0
   -6.2817    0.5286   27.5969 C   0  0  0  0  0  0  0  0  0  0  0  0
   -4.9557    1.0458   27.8758 C   0  0  0  0  0  0  0  0  0  0  0  0
   -4.7085    2.4232   27.9097 C   0  0  0  0  0  0  0  0  0  0  0  0
   -5.6072    3.2487   27.6942 C   0  0  0  0  0  0  0  0  0  0  0  0
   -3.8859    0.0700   28.1945 C   0  0  0  0  0  0  0  0  0  0  0  0
   -2.9761    0.4311   28.8868 O   0  0  0  0  0  0  0  0  0  0  0  0
   -4.0242   -1.1773   27.7596 O   0  0  0  0  0  0  0  0  0  0  0  0
  -13.3096    3.6192   23.5862 C   0  0  0  0  0  0  0  0  0  0  0  0
  -13.6998    2.8725   24.7417 C   0  0  0  0  0  0  0  0  0  0  0  0
  -14.9553    2.5901   25.0292 C   0  0  0  0  0  0  0  0  0  0  0  0
  -14.3692    4.2792   22.9207 C   0  0  0  0  0  0  0  0  0  0  0  0
  -15.6939    4.0202   23.1680 C   0  0  0  0  0  0  0  0  0  0  0  0
  -15.9826    3.2469   24.2925 C   0  0  0  0  0  0  0  0  0  0  0  0
  9 11  1  0
 11 12  1  0
 12 13  2  0
 13 14  1  0
  8 19  1  0
  1 20  1  0
 23 26  1  0
 26 27  2  0
 26 28  1  0
 11 29  1  1
 29 30  2  0
 30 31  1  0
 31 34  2  0
 34 33  1  0
 33 32  2  0
 32 29  1  0
  5 10  2  0
 10  9  1  0
  9  8  2  0
  8  7  1  0
  7  3  2  0
 14 15  2  0
 15 16  1  0
 16 17  2  0
 17 18  1  0
 18 19  2  0
 19 14  1  0
 20 21  2  0
 21 22  1  0
 22 23  2  0
 23 24  1  0
 24 25  2  0
 25 20  1  0
  1  2  2  0
  2  4  1  0
  4  6  2  0
  6  5  1  0
  5  3  1  0
  3  1  1  0
M  END
$$$$
