No_4697-complexes_sdf/6BKW-FPZ/2024-09-17-14-21-01/
     RDKit          3D

 20 22  0  0  0  0  0  0  0  0999 V2000
   -7.9040    3.9820   27.1177 C   0  0  0  0  0  0  0  0  0  0  0  0
   -7.8663    4.8694   27.9238 C   0  0  0  0  0  0  0  0  0  0  0  0
   -7.4547    2.7080   27.4594 C   0  0  0  0  0  0  0  0  0  0  0  0
   -7.9337    1.5946   26.8372 C   0  0  0  0  0  0  0  0  0  0  0  0
   -8.9032    1.7881   25.8510 C   0  0  0  0  0  0  0  0  0  0  0  0
   -9.3787    2.9871   25.5530 C   0  0  0  0  0  0  0  0  0  0  0  0
   -8.9781    4.0300   26.2200 C   0  0  0  0  0  0  0  0  0  0  0  0
   -8.0013    6.0716   27.8481 N   0  0  0  0  0  0  0  0  0  0  0  0
  -10.3917    3.1448   24.4429 C   0  0  0  0  0  0  0  0  0  0  0  0
  -10.4051    2.4028   23.3389 C   0  0  0  0  0  0  0  0  0  0  0  0
  -11.2569    2.6437   22.2391 C   0  0  0  0  0  0  0  0  0  0  0  0
  -12.0867    3.7973   22.3018 C   0  0  0  0  0  0  0  0  0  0  0  0
  -12.0598    4.5951   23.4458 C   0  0  0  0  0  0  0  0  0  0  0  0
  -11.2048    4.3888   24.4748 C   0  0  0  0  0  0  0  0  0  0  0  0
   -8.7124    6.6211   26.8502 C   0  0  0  0  0  0  0  0  0  0  0  0
   -9.2175    5.5593   25.9616 C   0  0  0  0  0  0  0  0  0  0  0  0
   -8.9343    7.8612   26.7153 N   0  0  0  0  0  0  0  0  0  0  0  0
   -7.3547    0.2385   27.0675 C   0  0  0  0  0  0  0  0  0  0  0  0
   -7.9339   -0.8887   26.9092 C   0  0  0  0  0  0  0  0  0  0  0  0
   -7.3774   -2.1137   27.3000 C   0  0  0  0  0  0  0  0  0  0  0  0
  6  9  1  0
 15 17  1  0
  4 18  1  0
 18 19  2  3
 19 20  1  0
  1  2  2  0
  2  8  1  0
  8 15  2  0
 15 16  1  0
 16  7  2  0
  9 10  2  0
 10 11  1  0
 11 12  2  0
 12 13  1  0
 13 14  2  0
 14  9  1  0
  1  3  1  0
  3  4  2  0
  4  5  1  0
  5  6  2  0
  6  7  1  0
  7  1  1  0
M  END
$$$$
