No_4484-complexes_sdf/6BKW-FPZ/2024-09-17-14-21-01/
     RDKit          3D

 18 20  0  0  0  0  0  0  0  0999 V2000
   -7.2496    3.8871   27.4508 C   0  0  0  0  0  0  0  0  0  0  0  0
   -7.9379    4.9063   27.8518 C   0  0  0  0  0  0  0  0  0  0  0  0
   -7.5112    6.1898   27.6280 C   0  0  0  0  0  0  0  0  0  0  0  0
   -7.8078    2.6331   27.2522 C   0  0  0  0  0  0  0  0  0  0  0  0
   -7.1538    1.5087   26.7509 C   0  0  0  0  0  0  0  0  0  0  0  0
   -9.2627    2.5305   27.2363 C   0  0  0  0  0  0  0  0  0  0  0  0
   -9.8316    1.3863   26.9098 C   0  0  0  0  0  0  0  0  0  0  0  0
   -7.7292    0.3404   26.4662 C   0  0  0  0  0  0  0  0  0  0  0  0
   -9.2434    0.4614   26.6278 C   0  0  0  0  0  0  0  0  0  0  0  0
   -9.3498    4.7571   28.2179 C   0  0  0  0  0  0  0  0  0  0  0  0
  -10.0029    3.6296   27.8469 C   0  0  2  0  0  0  0  0  0  0  0  0
  -11.4149    3.4768   28.1775 C   0  0  0  0  0  0  0  0  0  0  0  0
  -12.3222    4.2333   27.5004 C   0  0  0  0  0  0  0  0  0  0  0  0
  -13.6950    4.2372   27.7730 C   0  0  0  0  0  0  0  0  0  0  0  0
  -14.5197    5.0390   26.9591 C   0  0  0  0  0  0  0  0  0  0  0  0
  -14.0649    5.2901   25.6359 C   0  0  0  0  0  0  0  0  0  0  0  0
  -12.7608    4.8818   25.2433 C   0  0  0  0  0  0  0  0  0  0  0  0
  -11.8521    4.3453   26.1249 C   0  0  0  0  0  0  0  0  0  0  0  0
  1  2  1  0
  2  3  2  0
  1  4  1  0
  2 10  1  0
  6 11  1  0
 10 11  1  0
 11 12  1  1
 12 13  1  0
 13 14  2  0
 14 15  1  0
 15 16  2  0
 16 17  1  0
 17 18  2  0
 18 13  1  0
  4  5  2  0
  5  8  1  0
  8  9  2  0
  9  7  1  0
  7  6  2  0
  6  4  1  0
M  END
$$$$
