No_4160-complexes_sdf/6BKW-FPZ/2024-09-17-14-21-01/
     RDKit          3D

 16 17  0  0  0  0  0  0  0  0999 V2000
   -7.7129    4.2099   27.0854 C   0  0  0  0  0  0  0  0  0  0  0  0
   -8.2112    3.0637   26.9225 C   0  0  0  0  0  0  0  0  0  0  0  0
   -7.5138    1.9223   27.4249 C   0  0  0  0  0  0  0  0  0  0  0  0
   -8.5309    5.4147   26.8151 C   0  0  0  0  0  0  0  0  0  0  0  0
   -9.6817    5.2393   26.1100 C   0  0  0  0  0  0  0  0  0  0  0  0
  -10.1032    3.9957   25.8534 C   0  0  0  0  0  0  0  0  0  0  0  0
   -9.4035    2.8430   26.2573 C   0  0  0  0  0  0  0  0  0  0  0  0
   -8.0069    0.6506   27.2927 N   0  0  0  0  0  0  0  0  0  0  0  0
   -9.2459    0.5300   26.7222 C   0  0  0  0  0  0  0  0  0  0  0  0
   -9.9559    1.5428   26.1592 C   0  0  0  0  0  0  0  0  0  0  0  0
   -8.1853    6.8096   27.1316 C   0  0  0  0  0  0  0  0  0  0  0  0
   -7.3240    6.9769   28.0409 O   0  0  0  0  0  0  0  0  0  0  0  0
   -8.7079    7.8126   26.5543 O   0  0  0  0  0  0  0  0  0  0  0  0
   -6.3085    1.8992   28.0661 N   0  0  0  0  0  0  0  0  0  0  0  0
   -5.5009    0.8241   28.2164 C   0  0  0  0  0  0  0  0  0  0  0  0
   -5.6836   -0.4253   27.8475 C   0  0  0  0  0  0  0  0  0  0  0  0
  4 11  1  0
 11 12  1  0
 11 13  2  0
  3 14  1  0
 14 15  2  3
 15 16  1  0
  1  2  2  0
  7  6  2  0
  6  5  1  0
  5  4  2  0
  4  1  1  0
  2  3  1  0
  3  8  2  0
  8  9  1  0
  9 10  2  0
 10  7  1  0
  7  2  1  0
M  END
$$$$
