No_4076-complexes_sdf/6BKW-FPZ/2024-09-17-14-21-01/
     RDKit          3D

 13 14  0  0  0  0  0  0  0  0999 V2000
   -7.2496    3.8871   27.4508 C   0  0  0  0  0  0  0  0  0  0  0  0
   -8.5096    4.0291   27.2770 C   0  0  0  0  0  0  0  0  0  0  0  0
   -9.3502    2.8685   26.8763 C   0  0  0  0  0  0  0  0  0  0  0  0
   -6.6288    2.5513   27.4938 C   0  0  0  0  0  0  0  0  0  0  0  0
   -7.4365    1.4714   27.2032 C   0  0  0  0  0  0  0  0  0  0  0  0
  -10.6956    3.0464   26.6122 C   0  0  0  0  0  0  0  0  0  0  0  0
   -8.7780    1.6365   26.9046 C   0  0  0  0  0  0  0  0  0  0  0  0
  -11.2600    4.0709   26.3219 C   0  0  0  0  0  0  0  0  0  0  0  0
  -10.2723    5.2277   26.1604 C   0  0  0  0  0  0  0  0  0  0  0  0
   -9.0422    5.2605   26.8099 C   0  0  0  0  0  0  0  0  0  0  0  0
   -8.3503    6.5174   26.9589 C   0  0  0  0  0  0  0  0  0  0  0  0
   -8.7247    7.6323   26.3369 N   0  0  0  0  0  0  0  0  0  0  0  0
   -7.4996    6.6089   27.9980 O   0  0  0  0  0  0  0  0  0  0  0  0
 10 11  1  0
 11 12  1  0
 11 13  2  0
  3  6  1  0
  6  8  2  0
  8  9  1  0
  9 10  2  0
 10  2  1  0
  1  2  2  0
  2  3  1  0
  3  7  2  0
  7  5  1  0
  5  4  2  0
  4  1  1  0
M  END
$$$$
