No_4712-complexes_sdf/6BKW-FPZ/2024-09-17-14-21-01/
     RDKit          3D

 22 24  0  0  0  0  0  0  0  0999 V2000
   -7.7129    4.2099   27.0854 C   0  0  0  0  0  0  0  0  0  0  0  0
   -8.2112    3.0637   26.9225 C   0  0  0  0  0  0  0  0  0  0  0  0
   -8.5108    5.3904   26.9436 C   0  0  0  0  0  0  0  0  0  0  0  0
   -9.7256    5.1955   26.3518 C   0  0  0  0  0  0  0  0  0  0  0  0
   -9.4995    2.8258   26.4878 C   0  0  0  0  0  0  0  0  0  0  0  0
  -10.2542    3.9691   26.2055 C   0  0  0  0  0  0  0  0  0  0  0  0
   -7.9135    6.7086   27.1885 C   0  0  0  0  0  0  0  0  0  0  0  0
   -7.1774    1.9276   27.3070 C   0  0  2  0  0  0  0  0  0  0  0  0
   -6.0403    2.2368   27.7297 N   0  0  0  0  0  0  0  0  0  0  0  0
   -7.5435    0.5856   27.0488 C   0  0  0  0  0  0  0  0  0  0  0  0
   -6.5751   -0.3433   27.4184 C   0  0  0  0  0  0  0  0  0  0  0  0
   -5.0779    1.3260   28.1414 C   0  0  0  0  0  0  0  0  0  0  0  0
   -5.3646    0.0475   27.9641 N   0  0  0  0  0  0  0  0  0  0  0  0
   -6.9080    6.8662   27.8895 N   0  0  0  0  0  0  0  0  0  0  0  0
   -8.4648    7.8311   26.6261 N   0  0  0  0  0  0  0  0  0  0  0  0
   -4.3881   -0.9543   28.3932 C   0  0  0  0  0  0  0  0  0  0  0  0
   -3.6850   -1.0616   29.1966 C   0  0  0  0  0  0  0  0  0  0  0  0
   -2.6930   -2.0609   29.5193 C   0  0  0  0  0  0  0  0  0  0  0  0
   -2.7389   -3.1259   28.6462 C   0  0  0  0  0  0  0  0  0  0  0  0
   -4.4728   -2.0744   27.3961 C   0  0  0  0  0  0  0  0  0  0  0  0
   -3.5379   -3.1005   27.5598 C   0  0  0  0  0  0  0  0  0  0  0  0
   -4.0257    1.7711   28.6037 O   0  0  0  0  0  0  0  0  0  0  0  0
  3  7  1  0
  8  2  1  6
  8 10  1  0
  9 12  1  0
 11 13  1  0
 12 13  1  0
  7 14  1  0
  7 15  2  0
 13 16  1  0
 12 22  2  0
 11 10  1  0
  8  9  1  0
  1  2  2  0
  2  5  1  0
  5  6  2  0
  6  4  1  0
  4  3  2  0
  3  1  1  0
 16 17  2  0
 17 18  1  0
 18 19  2  0
 19 21  1  0
 21 20  2  0
 20 16  1  0
M  END
$$$$
