No_426-complexes_sdf/6BKW-FPZ/2024-09-17-14-21-01/
     RDKit          3D

 21 23  0  0  0  0  0  0  0  0999 V2000
   -7.9040    3.9820   27.1177 C   0  0  0  0  0  0  0  0  0  0  0  0
   -7.8663    4.8694   27.9238 C   0  0  0  0  0  0  0  0  0  0  0  0
   -7.4698    2.6989   27.4277 C   0  0  0  0  0  0  0  0  0  0  0  0
   -7.9683    1.5964   26.8266 C   0  0  1  0  0  0  0  0  0  0  0  0
   -8.9447    1.7923   25.8533 C   0  0  0  0  0  0  0  0  0  0  0  0
   -9.4405    2.9988   25.5757 C   0  0  2  0  0  0  0  0  0  0  0  0
  -10.4397    3.2630   24.6146 C   0  0  2  0  0  0  0  0  0  0  0  0
   -8.9100    4.1245   26.1959 C   0  0  0  0  0  0  0  0  0  0  0  0
   -8.1235    6.3364   27.6582 C   0  0  0  0  0  0  0  0  0  0  0  0
  -11.5680    2.6934   24.1320 Cl  0  0  0  0  0  0  0  0  0  0  0  0
  -10.0712    4.5990   23.7734 C   0  0  0  0  0  0  0  0  0  0  0  0
   -9.1143    6.6718   26.6885 C   0  0  0  0  0  0  0  0  0  0  0  0
   -9.4654    5.4386   25.9413 C   0  0  0  0  0  0  0  0  0  0  0  0
  -10.0311    5.6257   24.7259 N   0  0  0  0  0  0  0  0  0  0  0  0
   -7.4222    0.2262   27.0579 C   0  0  0  0  0  0  0  0  0  0  0  0
   -8.1054   -0.8261   27.1569 C   0  0  0  0  0  0  0  0  0  0  0  0
   -9.2650   -0.9539   26.8958 C   0  0  0  0  0  0  0  0  0  0  0  0
  -10.0457   -1.5183   27.1961 C   0  0  0  0  0  0  0  0  0  0  0  0
  -11.0413   -1.5711   27.5346 C   0  0  0  0  0  0  0  0  0  0  0  0
  -11.9663   -0.5104   27.0615 C   0  0  0  0  0  0  0  0  0  0  0  0
  -11.3524    0.4672   26.4344 C   0  0  0  0  0  0  0  0  0  0  0  0
  1  3  1  0
  3  4  1  0
  4  5  1  0
  6  5  1  6
  6  7  1  0
  6  8  1  0
  7 10  1  6
  7 11  1  0
 11 14  1  0
 13 14  1  0
  4 15  1  6
 15 16  1  0
 16 17  2  3
 17 18  1  0
 18 19  2  3
 19 20  1  0
 20 21  2  0
  1  2  2  0
  2  9  1  0
  9 12  2  0
 12 13  1  0
 13  8  2  0
  8  1  1  0
M  END
$$$$
