No_4369-complexes_sdf/6BKW-FPZ/2024-09-17-14-21-01/
     RDKit          3D

 26 28  0  0  0  0  0  0  0  0999 V2000
   -7.7129    4.2099   27.0854 C   0  0  0  0  0  0  0  0  0  0  0  0
   -7.7814    5.1722   27.8972 C   0  0  0  0  0  0  0  0  0  0  0  0
   -7.3155    2.9700   27.6145 C   0  0  0  0  0  0  0  0  0  0  0  0
   -6.9774    2.0071   26.9623 C   0  0  0  0  0  0  0  0  0  0  0  0
   -6.2970    0.8917   27.5555 C   0  0  0  0  0  0  0  0  0  0  0  0
   -6.4084   -0.4281   27.3038 C   0  0  0  0  0  0  0  0  0  0  0  0
   -7.1705   -0.6991   26.1426 C   0  0  0  0  0  0  0  0  0  0  0  0
   -7.2178   -2.0341   25.7328 C   0  0  0  0  0  0  0  0  0  0  0  0
   -7.8428    1.3003   26.0378 C   0  0  0  0  0  0  0  0  0  0  0  0
   -7.9147    0.1849   25.5503 C   0  0  0  0  0  0  0  0  0  0  0  0
   -8.4892    6.3518   27.4709 C   0  0  0  0  0  0  0  0  0  0  0  0
   -8.8687    6.5097   26.1069 C   0  0  0  0  0  0  0  0  0  0  0  0
   -9.0978    5.3349   25.4278 C   0  0  0  0  0  0  0  0  0  0  0  0
   -8.5099    4.1532   25.9374 C   0  0  0  0  0  0  0  0  0  0  0  0
   -7.5584   -2.5008   24.7979 O   0  0  0  0  0  0  0  0  0  0  0  0
   -6.6636   -3.0952   26.6008 O   0  0  0  0  0  0  0  0  0  0  0  0
   -6.5358   -4.2869   26.3472 C   0  0  1  0  0  0  0  0  0  0  0  0
   -5.5561   -4.7213   25.8066 C   0  0  0  0  0  0  0  0  0  0  0  0
   -4.3829   -4.1218   26.1989 C   0  0  0  0  0  0  0  0  0  0  0  0
   -3.2741   -4.0564   26.1861 C   0  0  0  0  0  0  0  0  0  0  0  0
   -2.2580   -3.0665   26.6801 C   0  0  0  0  0  0  0  0  0  0  0  0
   -2.7929   -1.8619   27.2148 C   0  0  0  0  0  0  0  0  0  0  0  0
   -4.1784   -1.8073   27.1986 C   0  0  0  0  0  0  0  0  0  0  0  0
   -4.9393   -2.7920   26.7242 C   0  0  0  0  0  0  0  0  0  0  0  0
   -5.3427   -2.3727   25.8091 F   0  0  0  0  0  0  0  0  0  0  0  0
   -6.9399   -5.1569   27.5968 C   0  0  0  0  0  0  0  0  0  0  0  0
  3  4  1  0
  7  8  1  0
  8 15  2  0
  8 16  1  0
 16 17  1  0
 17 18  1  0
 18 19  1  0
 24 25  1  0
 17 26  1  1
  3  1  1  0
  1  2  2  0
  2 11  1  0
 11 12  2  0
 12 13  1  0
 13 14  2  0
 14  1  1  0
  4  5  2  0
  5  6  1  0
  6  7  2  0
  7 10  1  0
 10  9  2  0
  9  4  1  0
 19 20  2  0
 20 21  1  0
 21 22  2  0
 22 23  1  0
 23 24  2  0
 24 19  1  0
M  END
$$$$
