No_4953-complexes_sdf/6BKW-FPZ/2024-09-17-14-21-01/
     RDKit          3D

 17 17  0  0  0  0  0  0  0  0999 V2000
   -7.9040    3.9820   27.1177 C   0  0  2  0  0  0  0  0  0  0  0  0
   -9.0711    4.3164   27.0630 C   0  0  0  0  0  0  0  0  0  0  0  0
   -9.5294    5.4517   27.7215 C   0  0  0  0  0  0  0  0  0  0  0  0
   -7.4336    2.7132   26.5681 C   0  0  0  0  0  0  0  0  0  0  0  0
   -8.3353    1.8569   26.0442 C   0  0  0  0  0  0  0  0  0  0  0  0
   -9.6477    2.2853   25.9146 C   0  0  0  0  0  0  0  0  0  0  0  0
  -10.0346    3.4497   26.4483 C   0  0  0  0  0  0  0  0  0  0  0  0
   -7.8750    0.5509   25.5918 C   0  0  0  0  0  0  0  0  0  0  0  0
   -8.0040    0.2730   24.4392 O   0  0  0  0  0  0  0  0  0  0  0  0
   -7.3963   -0.2648   26.4783 O   0  0  0  0  0  0  0  0  0  0  0  0
   -6.8817    4.6092   27.8170 F   0  0  0  0  0  0  0  0  0  0  0  0
   -7.1372   -1.2642   26.6025 C   0  0  0  0  0  0  0  0  0  0  0  0
   -6.7351   -1.6753   27.8023 C   0  0  0  0  0  0  0  0  0  0  0  0
   -7.5611   -2.3703   28.6854 C   0  0  0  0  0  0  0  0  0  0  0  0
   -7.2164   -2.6015   30.0986 C   0  0  0  0  0  0  0  0  0  0  0  0
   -5.9735   -2.2010   30.5663 C   0  0  0  0  0  0  0  0  0  0  0  0
   -5.1027   -1.5035   29.7230 C   0  0  0  0  0  0  0  0  0  0  0  0
  1  2  1  0
  2  3  2  0
  1  4  1  0
  4  5  1  0
  5  6  1  0
  2  7  1  0
  6  7  1  0
  5  8  1  0
  8  9  2  0
  8 10  1  0
  1 11  1  1
 10 12  1  0
 12 13  2  3
 13 14  1  0
 14 15  2  3
 15 16  1  0
 16 17  2  0
M  END
$$$$
