No_4029-complexes_sdf/6BKW-FPZ/2024-09-17-14-21-01/
     RDKit          3D

  9  9  0  0  0  0  0  0  0  0999 V2000
   -7.9040    3.9820   27.1177 C   0  0  0  0  0  0  0  0  0  0  0  0
   -8.2057    2.8231   26.8733 C   0  0  0  0  0  0  0  0  0  0  0  0
   -8.7695    5.0740   26.7916 C   0  0  0  0  0  0  0  0  0  0  0  0
   -8.4337    6.4678   27.0913 C   0  0  0  0  0  0  0  0  0  0  0  0
   -7.3775    1.6806   27.3986 C   0  0  0  0  0  0  0  0  0  0  0  0
   -6.0850    2.0823   27.7929 C   0  0  0  0  0  0  0  0  0  0  0  0
   -5.7270    3.4344   27.9605 C   0  0  0  0  0  0  0  0  0  0  0  0
   -6.5927    4.3693   27.6591 C   0  0  0  0  0  0  0  0  0  0  0  0
   -9.8587    4.8267   25.9112 C   0  0  0  0  0  0  0  0  0  0  0  0
  3  4  1  0
  3  9  1  0
  3  1  1  0
  1  2  2  0
  2  5  1  0
  5  6  2  0
  6  7  1  0
  7  8  2  0
  8  1  1  0
M  END
$$$$
