No_451-complexes_sdf/6BKW-FPZ/2024-09-17-14-21-01/
     RDKit          3D

 24 26  0  0  0  0  0  0  0  0999 V2000
   -7.7129    4.2099   27.0854 C   0  0  0  0  0  0  0  0  0  0  0  0
   -7.7814    5.1722   27.8972 C   0  0  0  0  0  0  0  0  0  0  0  0
   -7.3155    2.9700   27.6145 C   0  0  0  0  0  0  0  0  0  0  0  0
   -7.9010    1.7962   27.2023 C   0  0  0  0  0  0  0  0  0  0  0  0
   -8.9578    1.9047   26.2707 C   0  0  0  0  0  0  0  0  0  0  0  0
   -9.3989    3.1000   25.8096 C   0  0  0  0  0  0  0  0  0  0  0  0
   -8.8948    4.1615   26.3218 C   0  0  0  0  0  0  0  0  0  0  0  0
   -8.1888    6.3211   27.8690 N   0  0  0  0  0  0  0  0  0  0  0  0
   -9.1487    6.6343   26.8547 C   0  0  0  0  0  0  0  0  0  0  0  0
   -9.5571    5.4953   26.0827 C   0  0  0  0  0  0  0  0  0  0  0  0
   -7.2690    0.4950   27.5114 C   0  0  0  0  0  0  0  0  0  0  0  0
   -5.9247    0.3736   27.8655 C   0  0  0  0  0  0  0  0  0  0  0  0
   -5.3044   -0.7026   28.1862 C   0  0  0  0  0  0  0  0  0  0  0  0
   -6.0843   -1.8789   28.3031 C   0  0  0  0  0  0  0  0  0  0  0  0
   -7.9047   -0.7169   27.6181 C   0  0  0  0  0  0  0  0  0  0  0  0
   -7.4013   -1.8403   28.0395 C   0  0  0  0  0  0  0  0  0  0  0  0
   -3.8402   -0.7310   28.5795 C   0  0  1  0  0  0  0  0  0  0  0  0
   -2.9712   -1.4517   27.8004 C   0  0  0  0  0  0  0  0  0  0  0  0
   -3.3957    0.0665   29.6897 C   0  0  0  0  0  0  0  0  0  0  0  0
   -4.0920    0.7809   30.5404 C   0  0  0  0  0  0  0  0  0  0  0  0
   -3.0963   -2.6079   27.9975 F   0  0  0  0  0  0  0  0  0  0  0  0
   -3.2088   -1.1107   26.4732 F   0  0  0  0  0  0  0  0  0  0  0  0
   -1.6535   -1.0973   27.9036 F   0  0  0  0  0  0  0  0  0  0  0  0
   -4.2251   -0.0529   31.8190 C   0  0  0  0  0  0  0  0  0  0  0  0
  4 11  1  0
 13 17  1  0
 17 18  1  0
 17 19  1  6
 19 20  1  0
 18 21  1  0
 18 22  1  0
 18 23  1  0
 20 24  1  0
  1  2  2  0
  2  8  1  0
  8  9  2  0
  9 10  1  0
 10  7  2  0
 11 12  2  0
 12 13  1  0
 13 14  2  0
 14 16  1  0
 16 15  2  0
 15 11  1  0
  1  3  1  0
  3  4  2  0
  4  5  1  0
  5  6  2  0
  6  7  1  0
  7  1  1  0
M  END
$$$$
