No_4397-complexes_sdf/6BKW-FPZ/2024-09-17-14-21-01/
     RDKit          3D

 22 24  0  0  0  0  0  0  0  0999 V2000
   -7.9040    3.9820   27.1177 C   0  0  0  0  0  0  0  0  0  0  0  0
   -8.2057    2.8231   26.8733 C   0  0  0  0  0  0  0  0  0  0  0  0
   -8.7695    5.0740   26.7916 C   0  0  0  0  0  0  0  0  0  0  0  0
   -8.4337    6.4678   27.0913 C   0  0  0  0  0  0  0  0  0  0  0  0
   -9.3742    2.4311   26.2346 C   0  0  0  0  0  0  0  0  0  0  0  0
  -10.2395    3.4267   25.8887 C   0  0  0  0  0  0  0  0  0  0  0  0
   -9.9567    4.7548   26.1374 C   0  0  0  0  0  0  0  0  0  0  0  0
   -7.8881    6.8714   28.1602 N   0  0  0  0  0  0  0  0  0  0  0  0
   -8.8080    7.3602   26.2216 O   0  0  0  0  0  0  0  0  0  0  0  0
   -7.2542    1.6783   27.2847 C   0  0  0  0  0  0  0  0  0  0  0  0
   -6.6948    0.9102   26.8865 C   0  0  0  0  0  0  0  0  0  0  0  0
   -5.7575    0.0370   27.6169 C   0  0  0  0  0  0  0  0  0  0  0  0
   -5.1265    0.7262   28.5875 C   0  0  0  0  0  0  0  0  0  0  0  0
   -5.3201    2.0498   28.9512 C   0  0  0  0  0  0  0  0  0  0  0  0
   -6.3057    2.6580   28.2575 C   0  0  0  0  0  0  0  0  0  0  0  0
   -4.0580    0.0293   29.2782 O   0  0  0  0  0  0  0  0  0  0  0  0
   -3.3330   -0.8657   28.8623 C   0  0  0  0  0  0  0  0  0  0  0  0
   -3.5037   -2.0535   29.3982 C   0  0  0  0  0  0  0  0  0  0  0  0
   -2.8600   -3.1204   28.8297 C   0  0  0  0  0  0  0  0  0  0  0  0
   -2.4300   -0.6037   27.8629 C   0  0  0  0  0  0  0  0  0  0  0  0
   -1.6600   -1.5810   27.2984 C   0  0  0  0  0  0  0  0  0  0  0  0
   -1.8395   -2.8714   27.7961 C   0  0  0  0  0  0  0  0  0  0  0  0
  3  4  1  0
  4  8  2  0
  4  9  1  0
  2 10  1  0
 13 16  1  0
 16 17  1  0
 17 18  2  0
 18 19  1  0
 19 22  2  0
 22 21  1  0
 21 20  2  0
 20 17  1  0
  1  2  2  0
  2  5  1  0
  5  6  2  0
  6  7  1  0
  7  3  2  0
  3  1  1  0
 10 11  2  0
 11 12  1  0
 12 13  2  0
 13 14  1  0
 14 15  2  0
 15 10  1  0
M  END
$$$$
