No_4937-complexes_sdf/6BKW-FPZ/2024-09-17-14-21-01/
     RDKit          3D

 27 31  0  0  0  0  0  0  0  0999 V2000
   -7.2496    3.8871   27.4508 C   0  0  1  0  0  0  0  0  0  0  0  0
   -8.5096    4.0291   27.2770 C   0  0  0  0  0  0  0  0  0  0  0  0
   -9.2677    5.1714   27.5773 C   0  0  0  0  0  0  0  0  0  0  0  0
   -6.5711    2.6400   27.2842 C   0  0  0  0  0  0  0  0  0  0  0  0
   -7.2939    1.5094   27.0532 C   0  0  1  0  0  0  0  0  0  0  0  0
   -8.6122    1.6580   26.7575 C   0  0  0  0  0  0  0  0  0  0  0  0
   -9.2984    2.8495   26.9904 C   0  0  0  0  0  0  0  0  0  0  0  0
   -8.5823    6.3083   27.6450 N   0  0  0  0  0  0  0  0  0  0  0  0
  -10.4761    5.1638   28.1151 N   0  0  0  0  0  0  0  0  0  0  0  0
   -6.5959    0.2764   26.8514 C   0  0  0  0  0  0  0  0  0  0  0  0
   -6.8913   -0.5195   27.5843 O   0  0  0  0  0  0  0  0  0  0  0  0
   -5.3661    0.2846   26.4358 O   0  0  0  0  0  0  0  0  0  0  0  0
   -7.3468    6.4912   27.1504 C   0  0  0  0  0  0  0  0  0  0  0  0
  -11.1074    4.0073   28.2084 C   0  0  0  0  0  0  0  0  0  0  0  0
  -10.6133    2.7640   27.5962 C   0  0  0  0  0  0  0  0  0  0  0  0
   -6.5961    5.3173   27.3031 N   0  0  0  0  0  0  0  0  0  0  0  0
  -12.4710    3.9944   28.5454 N   0  0  0  0  0  0  0  0  0  0  0  0
  -13.3621    3.5476   28.3116 C   0  0  0  0  0  0  0  0  0  0  0  0
  -13.4785    2.5342   27.5337 C   0  0  0  0  0  0  0  0  0  0  0  0
  -14.7395    1.8094   27.2080 C   0  0  0  0  0  0  0  0  0  0  0  0
  -14.6958    3.9973   28.8518 C   0  0  0  0  0  0  0  0  0  0  0  0
  -14.6697    0.7490   26.4286 C   0  0  0  0  0  0  0  0  0  0  0  0
  -15.9184    3.4207   28.5676 C   0  0  0  0  0  0  0  0  0  0  0  0
  -15.8817    2.3494   27.7507 C   0  0  0  0  0  0  0  0  0  0  0  0
  -13.5980    0.2375   25.9343 C   0  0  0  0  0  0  0  0  0  0  0  0
  -12.3445    0.9054   26.2577 C   0  0  0  0  0  0  0  0  0  0  0  0
  -12.2748    1.9314   26.9939 C   0  0  0  0  0  0  0  0  0  0  0  0
  1  2  1  0
  2  3  2  0
  1  4  1  6
  4  5  1  0
  5  6  1  0
  2  7  1  0
  6  7  2  0
  3  8  1  0
  3  9  1  0
  5 10  1  6
 10 11  2  0
 10 12  1  0
  8 13  1  0
  9 14  2  0
  7 15  1  0
 14 15  1  0
  1 16  1  0
 13 16  1  0
 14 17  1  0
 17 18  1  0
 18 19  2  0
 19 20  1  0
 18 21  1  0
 20 22  2  0
 21 23  2  0
 20 24  1  0
 23 24  1  0
 22 25  1  0
 25 26  2  0
 19 27  1  0
 26 27  1  0
M  END
$$$$
