No_422-complexes_sdf/6BKW-FPZ/2024-09-17-14-21-01/
     RDKit          3D

 40 43  0  0  0  0  0  0  0  0999 V2000
   -7.2496    3.8871   27.4508 C   0  0  0  0  0  0  0  0  0  0  0  0
   -7.9379    4.9063   27.8518 C   0  0  0  0  0  0  0  0  0  0  0  0
   -9.3460    4.8223   27.8695 C   0  0  0  0  0  0  0  0  0  0  0  0
   -7.8628    2.6163   27.1065 C   0  0  0  0  0  0  0  0  0  0  0  0
   -7.1773    1.4959   26.7593 C   0  0  0  0  0  0  0  0  0  0  0  0
   -9.2868    2.5441   27.1466 C   0  0  0  0  0  0  0  0  0  0  0  0
  -10.0134    3.6672   27.5718 C   0  0  0  0  0  0  0  0  0  0  0  0
   -6.0673    1.1514   27.4729 N   0  0  0  0  0  0  0  0  0  0  0  0
   -5.4104    0.0085   27.2714 C   0  0  0  0  0  0  0  0  0  0  0  0
   -5.9712   -0.8912   26.4383 C   0  0  0  0  0  0  0  0  0  0  0  0
   -7.6282    0.4263   26.0293 C   0  0  0  0  0  0  0  0  0  0  0  0
   -7.0800   -0.6895   25.8146 C   0  0  0  0  0  0  0  0  0  0  0  0
   -4.0999   -0.1264   28.0574 C   0  0  1  0  0  0  0  0  0  0  0  0
   -4.0540   -1.2646   28.8214 C   0  0  0  0  0  0  0  0  0  0  0  0
   -4.4832   -1.2274   29.9871 C   0  0  0  0  0  0  0  0  0  0  0  0
   -4.1535   -1.6722   31.0480 C   0  0  0  0  0  0  0  0  0  0  0  0
   -4.7452   -1.5202   32.3944 C   0  0  0  0  0  0  0  0  0  0  0  0
   -6.0958   -1.1016   32.3861 C   0  0  0  0  0  0  0  0  0  0  0  0
   -6.6767   -0.9037   31.2157 C   0  0  0  0  0  0  0  0  0  0  0  0
   -6.0078   -0.9132   30.0441 C   0  0  0  0  0  0  0  0  0  0  0  0
  -11.4824    3.5507   27.7424 C   0  0  0  0  0  0  0  0  0  0  0  0
  -11.8733    2.9625   28.9184 C   0  0  0  0  0  0  0  0  0  0  0  0
  -12.9501    2.4402   28.9608 C   0  0  0  0  0  0  0  0  0  0  0  0
  -13.9627    2.6159   28.0289 C   0  0  0  0  0  0  0  0  0  0  0  0
  -12.3445    3.9110   26.7688 C   0  0  0  0  0  0  0  0  0  0  0  0
  -13.6756    3.4672   26.9028 C   0  0  0  0  0  0  0  0  0  0  0  0
   -7.1535    6.4082   28.2849 Cl  0  0  0  0  0  0  0  0  0  0  0  0
   -2.9243    0.1741   27.0483 C   0  0  0  0  0  0  0  0  0  0  0  0
   -4.0511   -1.7470   33.7373 C   0  0  0  0  0  0  0  0  0  0  0  0
   -2.8905   -1.0655   33.9270 C   0  0  0  0  0  0  0  0  0  0  0  0
   -2.3845   -0.3172   32.9650 C   0  0  0  0  0  0  0  0  0  0  0  0
   -2.2326   -1.2212   35.2325 C   0  0  0  0  0  0  0  0  0  0  0  0
   -2.8249   -1.4988   36.2621 N   0  0  0  0  0  0  0  0  0  0  0  0
   -0.9088   -1.2710   35.2621 O   0  0  0  0  0  0  0  0  0  0  0  0
   -2.1909   -1.6323   37.6191 C   0  0  0  0  0  0  0  0  0  0  0  0
   -2.6350   -0.8100   38.5703 C   0  0  0  0  0  0  0  0  0  0  0  0
   -3.3909    0.1589   38.1868 C   0  0  0  0  0  0  0  0  0  0  0  0
   -3.9149    1.2111   39.1452 C   0  0  0  0  0  0  0  0  0  0  0  0
   -4.7979    2.2777   38.7195 C   0  0  0  0  0  0  0  0  0  0  0  0
   -5.5517    2.8711   39.6995 C   0  0  0  0  0  0  0  0  0  0  0  0
  4  5  1  0
  9 13  1  0
 13 14  1  0
 14 15  1  0
  7 21  1  0
  2 27  1  0
 13 28  1  6
 17 29  1  0
 29 30  1  0
 30 31  2  0
 30 32  1  0
 32 33  1  0
 32 34  2  0
 33 35  1  0
 35 36  1  0
 36 37  2  3
 37 38  1  0
 38 39  2  3
 39 40  1  0
 15 16  2  0
 16 17  1  0
 17 18  2  0
 18 19  1  0
 19 20  2  0
 20 15  1  0
 21 22  2  0
 22 23  1  0
 23 24  2  0
 24 26  1  0
 26 25  2  0
 25 21  1  0
  5  8  2  0
  8  9  1  0
  9 10  2  0
 10 12  1  0
 12 11  2  0
 11  5  1  0
  1  2  2  0
  2  3  1  0
  3  7  2  0
  7  6  1  0
  6  4  2  0
  4  1  1  0
M  END
$$$$
