No_4725-complexes_sdf/6BKW-FPZ/2024-09-17-14-21-01/
     RDKit          3D

 13 13  0  0  0  0  0  0  0  0999 V2000
   -7.9040    3.9820   27.1177 C   0  0  0  0  0  0  0  0  0  0  0  0
   -9.0711    4.3164   27.0630 C   0  0  0  0  0  0  0  0  0  0  0  0
   -9.8698    3.9665   25.9495 C   0  0  0  0  0  0  0  0  0  0  0  0
   -7.4087    3.0336   26.9775 C   0  0  0  0  0  0  0  0  0  0  0  0
   -8.2557    2.0366   26.1319 C   0  0  0  0  0  0  0  0  0  0  0  0
   -9.4315    2.6210   25.6674 C   0  0  0  0  0  0  0  0  0  0  0  0
   -5.9821    2.2505   27.6347 Cl  0  0  0  0  0  0  0  0  0  0  0  0
  -10.2504    1.8425   24.6926 C   0  0  0  0  0  0  0  0  0  0  0  0
  -11.2859    1.8997   24.6202 C   0  0  0  0  0  0  0  0  0  0  0  0
  -12.1710    1.6896   24.0861 C   0  0  0  0  0  0  0  0  0  0  0  0
  -13.5403    2.2661   24.3460 C   0  0  0  0  0  0  0  0  0  0  0  0
  -13.5977    2.9791   25.2483 C   0  0  0  0  0  0  0  0  0  0  0  0
  -12.6296    3.4920   26.0713 C   0  0  0  0  0  0  0  0  0  0  0  0
  4  7  1  0
  6  8  1  0
  8  9  2  3
  9 10  1  0
 10 11  2  3
 11 12  1  0
 12 13  2  0
  1  2  2  0
  2  3  1  0
  3  6  2  0
  6  5  1  0
  5  4  2  0
  4  1  1  0
M  END
$$$$
