No_464-complexes_sdf/6BKW-FPZ/2024-09-17-14-21-01/
     RDKit          3D

 25 26  0  0  0  0  0  0  0  0999 V2000
   -7.9040    3.9820   27.1177 C   0  0  0  0  0  0  0  0  0  0  0  0
   -9.0711    4.3164   27.0630 C   0  0  0  0  0  0  0  0  0  0  0  0
   -9.5182    5.5541   27.5777 C   0  0  0  0  0  0  0  0  0  0  0  0
   -7.4468    2.6843   26.6499 C   0  0  0  0  0  0  0  0  0  0  0  0
   -8.3856    1.7878   26.2216 C   0  0  0  0  0  0  0  0  0  0  0  0
   -9.6812    2.2328   26.0889 C   0  0  0  0  0  0  0  0  0  0  0  0
  -10.0147    3.4312   26.5259 C   0  0  0  0  0  0  0  0  0  0  0  0
   -7.7098    0.5124   25.8113 C   0  0  0  0  0  0  0  0  0  0  0  0
   -7.9065    0.3394   24.6160 F   0  0  0  0  0  0  0  0  0  0  0  0
   -6.8287    0.0973   26.3072 F   0  0  0  0  0  0  0  0  0  0  0  0
   -8.9910    6.6082   27.0663 F   0  0  0  0  0  0  0  0  0  0  0  0
   -9.3669    5.6953   28.9774 F   0  0  0  0  0  0  0  0  0  0  0  0
  -10.8856    5.7176   27.5478 F   0  0  0  0  0  0  0  0  0  0  0  0
   -8.7944   -0.5031   26.2974 F   0  0  0  0  0  0  0  0  0  0  0  0
   -6.8724    4.6798   27.7590 O   0  0  0  0  0  0  0  0  0  0  0  0
  -10.7881    1.1948   25.3648 Cl  0  0  0  0  0  0  0  0  0  0  0  0
   -5.8084    4.1344   28.2645 C   0  0  0  0  0  0  0  0  0  0  0  0
  -11.2836    3.7560   26.3746 O   0  0  0  0  0  0  0  0  0  0  0  0
  -12.3176    3.2661   27.1545 C   0  0  0  0  0  0  0  0  0  0  0  0
  -13.4809    3.9523   27.0313 C   0  0  0  0  0  0  0  0  0  0  0  0
  -13.9303    4.6937   26.0128 C   0  0  0  0  0  0  0  0  0  0  0  0
  -15.1654    5.4311   25.9189 C   0  0  0  0  0  0  0  0  0  0  0  0
  -15.9335    5.4262   27.1411 C   0  0  0  0  0  0  0  0  0  0  0  0
  -15.5317    4.7792   28.2675 C   0  0  0  0  0  0  0  0  0  0  0  0
  -14.3524    4.0697   28.2839 C   0  0  0  0  0  0  0  0  0  0  0  0
  2  3  1  0
  5  8  1  0
  8  9  1  0
  8 10  1  0
  3 11  1  0
  3 12  1  0
  3 13  1  0
  8 14  1  0
  1 15  1  0
  6 16  1  0
 15 17  1  0
  7 18  1  0
 18 19  1  0
 19 20  1  0
  1  2  2  0
  2  7  1  0
  7  6  2  0
  6  5  1  0
  5  4  2  0
  4  1  1  0
 20 21  2  0
 21 22  1  0
 22 23  2  0
 23 24  1  0
 24 25  2  0
 25 20  1  0
M  END
$$$$
