No_4018-complexes_sdf/6BKW-FPZ/2024-09-17-14-21-01/
     RDKit          3D

 21 23  0  0  0  0  0  0  0  0999 V2000
   -7.9040    3.9820   27.1177 C   0  0  0  0  0  0  0  0  0  0  0  0
   -7.8663    4.8694   27.9238 C   0  0  0  0  0  0  0  0  0  0  0  0
   -9.0501    3.8017   26.2617 C   0  0  0  0  0  0  0  0  0  0  0  0
  -10.0189    4.7608   26.3707 C   0  0  0  0  0  0  0  0  0  0  0  0
   -8.6973    5.9722   27.8968 C   0  0  0  0  0  0  0  0  0  0  0  0
   -9.8216    5.8946   27.1241 C   0  0  0  0  0  0  0  0  0  0  0  0
   -8.9544    2.5594   25.4484 C   0  0  0  0  0  0  0  0  0  0  0  0
   -9.6764    2.5304   24.3915 N   0  0  0  0  0  0  0  0  0  0  0  0
   -9.7020    1.4764   23.5334 C   0  0  0  0  0  0  0  0  0  0  0  0
   -8.2864    1.6393   25.7755 O   0  0  0  0  0  0  0  0  0  0  0  0
  -10.2223    1.7097   22.2602 C   0  0  0  0  0  0  0  0  0  0  0  0
  -10.2661    0.6642   21.3305 C   0  0  0  0  0  0  0  0  0  0  0  0
   -9.6760   -0.5972   21.6004 C   0  0  0  0  0  0  0  0  0  0  0  0
   -9.0529   -0.7523   22.8651 C   0  0  0  0  0  0  0  0  0  0  0  0
   -9.0704    0.2425   23.8026 C   0  0  0  0  0  0  0  0  0  0  0  0
   -9.7283   -1.6311   20.5876 C   0  0  0  0  0  0  0  0  0  0  0  0
  -10.5224   -2.6871   20.8349 C   0  0  0  0  0  0  0  0  0  0  0  0
  -10.5428   -3.7156   19.8991 C   0  0  0  0  0  0  0  0  0  0  0  0
   -9.7574   -3.6019   18.7024 C   0  0  0  0  0  0  0  0  0  0  0  0
   -8.9682   -2.5068   18.4878 C   0  0  0  0  0  0  0  0  0  0  0  0
   -8.8766   -1.4839   19.4192 C   0  0  0  0  0  0  0  0  0  0  0  0
  3  7  1  0
  7  8  1  0
  8  9  1  0
  7 10  2  0
 13 16  1  0
 16 17  2  0
 17 18  1  0
 18 19  2  0
 19 20  1  0
 20 21  2  0
 21 16  1  0
  1  2  2  0
  2  5  1  0
  5  6  2  0
  6  4  1  0
  4  3  2  0
  3  1  1  0
  9 11  2  0
 11 12  1  0
 12 13  2  0
 13 14  1  0
 14 15  2  0
 15  9  1  0
M  END
$$$$
