No_4020-complexes_sdf/6BKW-FPZ/2024-09-17-14-21-01/
     RDKit          3D

 25 28  0  0  0  0  0  0  0  0999 V2000
   -7.7129    4.2099   27.0854 C   0  0  0  0  0  0  0  0  0  0  0  0
   -8.2112    3.0637   26.9225 C   0  0  0  0  0  0  0  0  0  0  0  0
   -8.5108    5.3904   26.9436 C   0  0  0  0  0  0  0  0  0  0  0  0
   -7.9752    6.6981   27.2112 C   0  0  0  0  0  0  0  0  0  0  0  0
   -9.3028    2.7986   26.6391 C   0  0  0  0  0  0  0  0  0  0  0  0
  -10.2394    3.8537   26.3723 C   0  0  0  0  0  0  0  0  0  0  0  0
   -9.7885    5.1481   26.5368 C   0  0  0  0  0  0  0  0  0  0  0  0
   -8.8272    7.5259   27.5982 F   0  0  0  0  0  0  0  0  0  0  0  0
   -7.1481    6.5526   28.3895 F   0  0  0  0  0  0  0  0  0  0  0  0
   -7.1745    7.1584   26.2986 F   0  0  0  0  0  0  0  0  0  0  0  0
   -7.0123    1.7193   27.2794 Cl  0  0  0  0  0  0  0  0  0  0  0  0
  -11.6082    3.6708   25.9149 C   0  0  0  0  0  0  0  0  0  0  0  0
  -12.5495    3.1821   26.8145 C   0  0  0  0  0  0  0  0  0  0  0  0
  -12.3232    2.8237   27.9464 C   0  0  0  0  0  0  0  0  0  0  0  0
  -13.0124    2.4351   28.9696 C   0  0  0  0  0  0  0  0  0  0  0  0
  -14.3743    2.6855   28.9276 C   0  0  0  0  0  0  0  0  0  0  0  0
  -14.8410    3.1755   27.6653 C   0  0  0  0  0  0  0  0  0  0  0  0
  -13.9991    3.5805   26.7158 C   0  0  0  0  0  0  0  0  0  0  0  0
  -11.8874    3.7948   24.5233 C   0  0  0  0  0  0  0  0  0  0  0  0
  -10.9756    4.0420   23.6165 C   0  0  0  0  0  0  0  0  0  0  0  0
  -11.2364    4.2241   22.2669 C   0  0  0  0  0  0  0  0  0  0  0  0
  -12.5442    4.1771   21.8805 C   0  0  0  0  0  0  0  0  0  0  0  0
  -13.5739    4.0224   22.7860 C   0  0  0  0  0  0  0  0  0  0  0  0
  -13.2420    3.8449   24.0990 C   0  0  0  0  0  0  0  0  0  0  0  0
  -14.4257    3.8953   25.2704 C   0  0  0  0  0  0  0  0  0  0  0  0
  3  4  1  0
  4  8  1  0
  4  9  1  0
  4 10  1  0
  2 11  1  0
  6 12  1  0
 12 13  1  0
 12 19  1  0
 18 25  1  0
 24 25  1  0
 13 14  2  0
 14 15  1  0
 15 16  2  0
 16 17  1  0
 17 18  2  0
 18 13  1  0
  1  2  2  0
  2  5  1  0
  5  6  2  0
  6  7  1  0
  7  3  2  0
  3  1  1  0
 19 20  2  0
 20 21  1  0
 21 22  2  0
 22 23  1  0
 23 24  2  0
 24 19  1  0
M  END
$$$$
