No_4694-complexes_sdf/6BKW-FPZ/2024-09-17-14-21-01/
     RDKit          3D

 32 35  0  0  0  0  0  0  0  0999 V2000
   -7.2496    3.8871   27.4508 C   0  0  0  0  0  0  0  0  0  0  0  0
   -7.9379    4.9063   27.8518 C   0  0  0  0  0  0  0  0  0  0  0  0
   -9.3376    4.8647   27.7795 C   0  0  0  0  0  0  0  0  0  0  0  0
   -7.8544    2.6294   27.0414 C   0  0  0  0  0  0  0  0  0  0  0  0
   -9.2852    2.6570   27.0666 C   0  0  0  0  0  0  0  0  0  0  0  0
  -10.0126    3.7528   27.4890 C   0  0  0  0  0  0  0  0  0  0  0  0
   -9.9609    1.3640   26.7239 C   0  0  0  0  0  0  0  0  0  0  0  0
  -10.7586    0.8639   27.5578 C   0  0  0  0  0  0  0  0  0  0  0  0
  -11.4523   -0.3839   27.3796 C   0  0  0  0  0  0  0  0  0  0  0  0
  -11.1327   -1.0627   26.2490 C   0  0  0  0  0  0  0  0  0  0  0  0
   -9.5575    0.6816   25.5793 C   0  0  0  0  0  0  0  0  0  0  0  0
  -10.1860   -0.5269   25.3389 C   0  0  0  0  0  0  0  0  0  0  0  0
   -7.3197    6.0807   28.1600 O   0  0  0  0  0  0  0  0  0  0  0  0
   -9.8764   -1.2680   24.0891 C   0  0  0  0  0  0  0  0  0  0  0  0
  -10.2370   -0.8799   22.9497 C   0  0  0  0  0  0  0  0  0  0  0  0
   -9.7502   -1.3941   21.7507 C   0  0  0  0  0  0  0  0  0  0  0  0
   -8.7915   -2.4490   21.8152 C   0  0  0  0  0  0  0  0  0  0  0  0
   -8.7827   -2.2616   24.1870 C   0  0  0  0  0  0  0  0  0  0  0  0
   -8.3000   -2.8345   23.0077 C   0  0  0  0  0  0  0  0  0  0  0  0
  -11.3029    3.6818   27.5639 F   0  0  0  0  0  0  0  0  0  0  0  0
  -12.3801   -0.9268   28.3964 C   0  0  0  0  0  0  0  0  0  0  0  0
  -12.0857   -1.7524   29.0174 O   0  0  0  0  0  0  0  0  0  0  0  0
  -13.4762   -0.2211   28.4869 O   0  0  0  0  0  0  0  0  0  0  0  0
  -14.4095   -0.5263   29.4057 C   0  0  0  0  0  0  0  0  0  0  0  0
  -14.3641    0.2489   30.5122 C   0  0  0  0  0  0  0  0  0  0  0  0
  -15.4998    1.1240   30.7859 C   0  0  0  0  0  0  0  0  0  0  0  0
  -15.4193    2.3212   30.8609 C   0  0  0  0  0  0  0  0  0  0  0  0
  -14.0838    3.0553   31.2396 C   0  0  0  0  0  0  0  0  0  0  0  0
  -13.9362    4.3390   31.6520 C   0  0  0  0  0  0  0  0  0  0  0  0
  -14.9441    5.2040   31.3784 C   0  0  0  0  0  0  0  0  0  0  0  0
  -16.1921    4.7646   30.9233 C   0  0  0  0  0  0  0  0  0  0  0  0
  -16.3942    3.4142   30.7779 C   0  0  0  0  0  0  0  0  0  0  0  0
  5  7  1  0
  2 13  1  0
 12 14  1  0
  6 20  1  0
  9 21  1  0
 21 22  2  0
 21 23  1  0
 23 24  1  0
 24 25  1  0
 25 26  1  0
 26 27  1  0
  7  8  2  0
  8  9  1  0
  9 10  2  0
 10 12  1  0
 12 11  2  0
 11  7  1  0
 14 15  2  0
 15 16  1  0
 16 17  2  0
 17 19  1  0
 19 18  2  0
 18 14  1  0
 27 28  2  0
 28 29  1  0
 29 30  2  0
 30 31  1  0
 31 32  2  0
 32 27  1  0
  1  2  2  0
  2  3  1  0
  3  6  2  0
  6  5  1  0
  5  4  2  0
  4  1  1  0
M  END
$$$$
