No_4971-complexes_sdf/6BKW-FPZ/2024-09-17-14-21-01/
     RDKit          3D

 29 31  0  0  0  0  0  0  0  0999 V2000
   -7.9040    3.9820   27.1177 C   0  0  0  0  0  0  0  0  0  0  0  0
   -8.2057    2.8231   26.8733 C   0  0  0  0  0  0  0  0  0  0  0  0
   -8.7695    5.0740   26.7916 C   0  0  0  0  0  0  0  0  0  0  0  0
   -9.9618    4.7598   26.1630 C   0  0  0  0  0  0  0  0  0  0  0  0
   -9.4200    2.4524   26.2850 C   0  0  0  0  0  0  0  0  0  0  0  0
  -10.2590    3.4815   25.9250 C   0  0  0  0  0  0  0  0  0  0  0  0
   -8.3840    6.4693   27.0829 C   0  0  0  0  0  0  0  0  0  0  0  0
   -7.7453    6.8270   28.1334 N   0  0  0  0  0  0  0  0  0  0  0  0
   -8.8079    7.3586   26.2664 F   0  0  0  0  0  0  0  0  0  0  0  0
   -7.2828    1.6779   27.2862 C   0  0  0  0  0  0  0  0  0  0  0  0
   -6.7559    0.8864   26.8595 C   0  0  0  0  0  0  0  0  0  0  0  0
   -5.8118   -0.0156   27.5613 C   0  0  0  0  0  0  0  0  0  0  0  0
   -4.9416    0.0717   28.1268 C   0  0  0  0  0  0  0  0  0  0  0  0
   -4.1493   -0.8307   28.9204 C   0  0  0  0  0  0  0  0  0  0  0  0
   -4.4859   -2.1205   28.7583 C   0  0  0  0  0  0  0  0  0  0  0  0
   -6.0097   -1.5423   27.5512 C   0  0  0  0  0  0  0  0  0  0  0  0
   -5.4085   -2.4522   28.0689 C   0  0  0  0  0  0  0  0  0  0  0  0
   -7.3218    0.3029   25.7151 O   0  0  0  0  0  0  0  0  0  0  0  0
   -4.4915    1.4821   28.4781 O   0  0  0  0  0  0  0  0  0  0  0  0
   -6.6381   -0.5811   24.9653 C   0  0  0  0  0  0  0  0  0  0  0  0
  -11.5074    3.1987   25.1647 C   0  0  0  0  0  0  0  0  0  0  0  0
  -12.5697    2.8062   25.8380 C   0  0  0  0  0  0  0  0  0  0  0  0
  -13.8004    2.5179   25.1447 C   0  0  0  0  0  0  0  0  0  0  0  0
  -11.5873    3.4334   23.8009 C   0  0  0  0  0  0  0  0  0  0  0  0
  -12.7567    3.1964   23.0977 C   0  0  0  0  0  0  0  0  0  0  0  0
  -13.8511    2.7690   23.7774 C   0  0  0  0  0  0  0  0  0  0  0  0
   -7.0050   -0.4350   23.5297 C   0  0  0  0  0  0  0  0  0  0  0  0
   -6.6282   -1.4943   22.7353 C   0  0  0  0  0  0  0  0  0  0  0  0
   -5.8765   -2.3695   23.1473 N   0  0  0  0  0  0  0  0  0  0  0  0
  3  7  1  0
  7  8  2  0
  7  9  1  0
  2 10  1  0
 10 11  2  3
 11 12  1  0
 11 18  1  0
 13 19  1  0
 18 20  1  0
  6 21  1  0
 20 27  1  0
 27 28  1  0
 28 29  3  0
 12 13  2  0
 13 14  1  0
 14 15  2  0
 15 17  1  0
 17 16  2  0
 16 12  1  0
 21 22  2  0
 22 23  1  0
 23 26  2  0
 26 25  1  0
 25 24  2  0
 24 21  1  0
  1  2  2  0
  2  5  1  0
  5  6  2  0
  6  4  1  0
  4  3  2  0
  3  1  1  0
M  END
$$$$
