No_47-complexes_sdf/6BKW-FPZ/2024-09-17-14-21-01/
     RDKit          3D

 19 21  0  0  0  0  0  0  0  0999 V2000
   -7.7129    4.2099   27.0854 C   0  0  0  0  0  0  0  0  0  0  0  0
   -7.7814    5.1722   27.8972 C   0  0  0  0  0  0  0  0  0  0  0  0
   -8.8776    3.8408   26.3416 C   0  0  0  0  0  0  0  0  0  0  0  0
   -8.9136    2.6330   25.5655 C   0  0  0  0  0  0  0  0  0  0  0  0
   -8.8361    6.1389   27.9032 C   0  0  0  0  0  0  0  0  0  0  0  0
   -9.9718    4.7048   26.3433 C   0  0  0  0  0  0  0  0  0  0  0  0
   -9.9205    5.8499   27.1013 C   0  0  0  0  0  0  0  0  0  0  0  0
   -8.3041    1.4977   26.1841 C   0  0  0  0  0  0  0  0  0  0  0  0
   -8.3335    0.2552   25.5744 C   0  0  0  0  0  0  0  0  0  0  0  0
   -8.9467    0.2287   24.3042 C   0  0  0  0  0  0  0  0  0  0  0  0
   -9.4656    2.4150   24.3662 C   0  0  0  0  0  0  0  0  0  0  0  0
   -9.4751    1.2866   23.7267 C   0  0  0  0  0  0  0  0  0  0  0  0
  -10.0891    1.2053   22.3804 C   0  0  0  0  0  0  0  0  0  0  0  0
  -11.3793    1.0522   22.3240 C   0  0  0  0  0  0  0  0  0  0  0  0
  -12.0032    1.0303   21.0592 C   0  0  0  0  0  0  0  0  0  0  0  0
  -11.1899    1.0228   19.9003 C   0  0  0  0  0  0  0  0  0  0  0  0
   -9.8474    1.0869   20.0746 C   0  0  0  0  0  0  0  0  0  0  0  0
   -9.1902    1.2235   21.2656 C   0  0  0  0  0  0  0  0  0  0  0  0
   -6.7609    5.5690   28.6781 F   0  0  0  0  0  0  0  0  0  0  0  0
  3  4  1  0
 12 13  1  0
  2 19  1  0
 13 14  2  0
 14 15  1  0
 15 16  2  0
 16 17  1  0
 17 18  2  0
 18 13  1  0
  4  8  2  0
  8  9  1  0
  9 10  2  0
 10 12  1  0
 12 11  2  0
 11  4  1  0
  1  2  2  0
  2  5  1  0
  5  7  2  0
  7  6  1  0
  6  3  2  0
  3  1  1  0
M  END
$$$$
