No_4165-complexes_sdf/6BKW-FPZ/2024-09-17-14-21-01/
     RDKit          3D

 23 25  0  0  0  0  0  0  0  0999 V2000
   -7.9040    3.9820   27.1177 C   0  0  0  0  0  0  0  0  0  0  0  0
   -8.2057    2.8231   26.8733 C   0  0  0  0  0  0  0  0  0  0  0  0
   -7.0130    4.3706   28.1140 C   0  0  0  0  0  0  0  0  0  0  0  0
   -7.4093    1.7370   27.3857 C   0  0  0  0  0  0  0  0  0  0  0  0
   -7.6967    0.3945   27.1348 C   0  0  0  0  0  0  0  0  0  0  0  0
   -5.9465    3.4404   28.3275 C   0  0  0  0  0  0  0  0  0  0  0  0
   -6.2311    2.0815   28.0719 C   0  0  0  0  0  0  0  0  0  0  0  0
   -8.9931   -0.0603   27.0609 C   0  0  0  0  0  0  0  0  0  0  0  0
  -10.0063    0.9327   27.3347 C   0  0  0  0  0  0  0  0  0  0  0  0
   -9.7152    2.3511   27.0521 C   0  0  0  0  0  0  0  0  0  0  0  0
   -8.9398    5.0927   26.7058 C   0  0  1  0  0  0  0  0  0  0  0  0
   -9.0430    6.2215   27.3470 N   0  0  0  0  0  0  0  0  0  0  0  0
   -9.4547    4.9715   25.3784 C   0  0  0  0  0  0  0  0  0  0  0  0
   -5.1988    1.1067   28.4739 C   0  0  0  0  0  0  0  0  0  0  0  0
   -5.0008    0.0603   28.9056 C   0  0  0  0  0  0  0  0  0  0  0  0
   -3.8095   -0.4669   29.3871 C   0  0  0  0  0  0  0  0  0  0  0  0
   -2.8207   -0.6937   29.4240 C   0  0  0  0  0  0  0  0  0  0  0  0
   -1.9009   -1.2948   29.2530 F   0  0  0  0  0  0  0  0  0  0  0  0
   -6.1572   -0.8526   29.2852 C   0  0  0  0  0  0  0  0  0  0  0  0
   -5.9290   -1.9646   30.1865 C   0  0  0  0  0  0  0  0  0  0  0  0
   -4.9734   -2.2637   30.8776 C   0  0  0  0  0  0  0  0  0  0  0  0
   -3.7162   -1.5696   30.4961 C   0  0  0  0  0  0  0  0  0  0  0  0
   -2.2308    0.5070   30.2546 F   0  0  0  0  0  0  0  0  0  0  0  0
  1 11  1  0
 11 12  1  0
 11 13  1  6
  7 14  1  0
 14 15  1  0
 16 17  1  0
 17 18  1  0
 17 23  1  0
  1  2  2  0
  4  7  2  0
  7  6  1  0
  6  3  2  0
  3  1  1  0
 15 16  2  0
 16 22  1  0
 22 21  2  0
 21 20  1  0
 20 19  2  0
 19 15  1  0
  2  4  1  0
  4  5  1  0
  5  8  2  0
  8  9  1  0
  9 10  2  0
 10  2  1  0
M  END
$$$$
