No_498-complexes_sdf/6BKW-FPZ/2024-09-17-14-21-01/
     RDKit          3D

 32 34  0  0  0  0  0  0  0  0999 V2000
   -7.7129    4.2099   27.0854 C   0  0  0  0  0  0  0  0  0  0  0  0
   -8.2112    3.0637   26.9225 C   0  0  0  0  0  0  0  0  0  0  0  0
   -9.4446    2.8304   26.1868 C   0  0  0  0  0  0  0  0  0  0  0  0
   -8.4697    5.3956   26.7238 C   0  0  0  0  0  0  0  0  0  0  0  0
   -9.6172    5.2111   25.9513 C   0  0  0  0  0  0  0  0  0  0  0  0
  -10.0424    3.9782   25.6873 C   0  0  0  0  0  0  0  0  0  0  0  0
   -7.5594    1.9037   27.3886 N   0  0  0  0  0  0  0  0  0  0  0  0
   -6.2383    1.9002   27.7036 C   0  0  0  0  0  0  0  0  0  0  0  0
   -5.6534    0.6371   28.1135 C   0  0  1  0  0  0  0  0  0  0  0  0
   -8.0098    0.5821   27.0552 C   0  0  0  0  0  0  0  0  0  0  0  0
   -7.4709   -0.5377   27.5108 C   0  0  0  0  0  0  0  0  0  0  0  0
   -4.2287    0.7372   28.7264 C   0  0  0  0  0  0  0  0  0  0  0  0
   -6.2668   -0.4878   28.0597 C   0  0  0  0  0  0  0  0  0  0  0  0
   -3.3269    1.2680   28.2141 N   0  0  0  0  0  0  0  0  0  0  0  0
   -4.0967    0.4003   30.0857 N   0  0  0  0  0  0  0  0  0  0  0  0
   -4.8201   -0.3388   30.8941 C   0  0  0  0  0  0  0  0  0  0  0  0
   -4.2910   -0.4948   32.2408 C   0  0  0  0  0  0  0  0  0  0  0  0
   -5.1033   -1.1721   33.1945 C   0  0  0  0  0  0  0  0  0  0  0  0
   -6.3338   -1.7329   32.7798 C   0  0  0  0  0  0  0  0  0  0  0  0
   -6.6874   -1.7349   31.4460 C   0  0  0  0  0  0  0  0  0  0  0  0
   -5.9262   -1.0408   30.5597 C   0  0  0  0  0  0  0  0  0  0  0  0
   -7.9610    6.7421   27.0413 C   0  0  0  0  0  0  0  0  0  0  0  0
   -8.5301    7.8271   26.6420 O   0  0  0  0  0  0  0  0  0  0  0  0
   -6.9380    6.7937   27.8874 O   0  0  0  0  0  0  0  0  0  0  0  0
   -4.7314   -1.1682   34.6241 C   0  0  0  0  0  0  0  0  0  0  0  0
   -3.9643   -2.1326   34.9292 F   0  0  0  0  0  0  0  0  0  0  0  0
   -5.8347   -1.1823   35.4354 F   0  0  0  0  0  0  0  0  0  0  0  0
   -4.0463   -0.0078   34.9566 F   0  0  0  0  0  0  0  0  0  0  0  0
  -11.2405    3.8101   24.8378 C   0  0  0  0  0  0  0  0  0  0  0  0
  -11.2339    3.2283   23.7618 O   0  0  0  0  0  0  0  0  0  0  0  0
  -12.3321    4.5669   25.1335 O   0  0  0  0  0  0  0  0  0  0  0  0
   -7.7409   -2.4228   31.1433 F   0  0  0  0  0  0  0  0  0  0  0  0
  2  7  1  0
  7  8  1  0
  7 10  1  0
  9 12  1  0
  9 13  1  1
 11 13  1  0
 12 14  1  0
 12 15  2  3
 15 16  1  0
  4 22  1  0
 22 23  2  0
 22 24  1  0
 18 25  1  0
 25 26  1  0
 25 27  1  0
 25 28  1  0
  6 29  1  0
 29 30  2  0
 29 31  1  0
 20 32  1  0
  8  9  1  0
 11 10  1  0
  1  2  2  0
  2  3  1  0
  3  6  2  0
  6  5  1  0
  5  4  2  0
  4  1  1  0
 16 17  2  0
 17 18  1  0
 18 19  2  0
 19 20  1  0
 20 21  2  0
 21 16  1  0
M  END
$$$$
