No_4011-complexes_sdf/6BKW-FPZ/2024-09-17-14-21-01/
     RDKit          3D

 16 18  0  0  0  0  0  0  0  0999 V2000
   -7.2496    3.8871   27.4508 C   0  0  0  0  0  0  0  0  0  0  0  0
   -7.9379    4.9063   27.8518 C   0  0  0  0  0  0  0  0  0  0  0  0
   -9.3460    4.8223   27.8695 C   0  0  0  0  0  0  0  0  0  0  0  0
   -7.8628    2.6163   27.1065 C   0  0  0  0  0  0  0  0  0  0  0  0
   -9.2787    2.5744   27.1970 C   0  0  0  0  0  0  0  0  0  0  0  0
  -10.0108    3.6770   27.6340 C   0  0  0  0  0  0  0  0  0  0  0  0
  -11.4834    3.5674   27.7432 C   0  0  0  0  0  0  0  0  0  0  0  0
  -11.9395    2.6434   28.4995 C   0  0  0  0  0  0  0  0  0  0  0  0
  -13.3550    2.4593   28.7913 C   0  0  0  0  0  0  0  0  0  0  0  0
  -13.8026    1.4019   29.5768 C   0  0  0  0  0  0  0  0  0  0  0  0
  -13.0906    0.1848   29.3985 C   0  0  0  0  0  0  0  0  0  0  0  0
  -11.7527    0.2035   28.8935 C   0  0  0  0  0  0  0  0  0  0  0  0
  -11.1807    1.3613   28.4166 C   0  0  0  0  0  0  0  0  0  0  0  0
   -9.8264    1.3491   27.9311 C   0  0  0  0  0  0  0  0  0  0  0  0
   -7.3240    6.1186   27.9767 O   0  0  0  0  0  0  0  0  0  0  0  0
   -9.1477    0.2687   27.7980 O   0  0  0  0  0  0  0  0  0  0  0  0
  6  7  1  0
  5 14  1  0
 13 14  1  0
  2 15  1  0
 14 16  2  0
  7  8  1  0
  1  2  2  0
  2  3  1  0
  3  6  2  0
  6  5  1  0
  5  4  2  0
  4  1  1  0
  8  9  2  0
  9 10  1  0
 10 11  2  0
 11 12  1  0
 12 13  2  0
 13  8  1  0
M  END
$$$$
