No_4914-complexes_sdf/6BKW-FPZ/2024-09-17-14-21-01/
     RDKit          3D

 10 10  0  0  0  0  0  0  0  0999 V2000
   -7.9040    3.9820   27.1177 C   0  0  0  0  0  0  0  0  0  0  0  0
   -9.0711    4.3164   27.0630 C   0  0  0  0  0  0  0  0  0  0  0  0
   -9.8698    3.9665   25.9494 C   0  0  0  0  0  0  0  0  0  0  0  0
   -7.0332    4.5030   28.2025 C   0  0  0  0  0  0  0  0  0  0  0  0
  -10.9909    4.7237   25.5958 C   0  0  0  0  0  0  0  0  0  0  0  0
   -7.4989    5.5572   28.9524 C   0  0  0  0  0  0  0  0  0  0  0  0
  -11.7350    4.2316   24.5284 C   0  0  0  0  0  0  0  0  0  0  0  0
  -12.9541    4.7814   24.2364 C   0  0  0  0  0  0  0  0  0  0  0  0
   -8.7956    6.0388   28.6502 C   0  0  0  0  0  0  0  0  0  0  0  0
   -9.5187    5.4525   27.6280 C   0  0  0  0  0  0  0  0  0  0  0  0
  3  5  1  0
  5  7  1  0
  7  8  1  0
  3  2  1  0
  1  2  2  0
  2 10  1  0
 10  9  2  0
  9  6  1  0
  6  4  2  0
  4  1  1  0
M  END
$$$$
