No_4878-complexes_sdf/6BKW-FPZ/2024-09-17-14-21-01/
     RDKit          3D

 24 27  0  0  0  0  0  0  0  0999 V2000
   -7.9040    3.9820   27.1177 C   0  0  0  0  0  0  0  0  0  0  0  0
   -7.8663    4.8694   27.9238 C   0  0  0  0  0  0  0  0  0  0  0  0
   -7.4547    2.7080   27.4594 C   0  0  0  0  0  0  0  0  0  0  0  0
   -7.9337    1.5946   26.8372 C   0  0  0  0  0  0  0  0  0  0  0  0
   -8.9032    1.7881   25.8510 C   0  0  0  0  0  0  0  0  0  0  0  0
   -9.3787    2.9871   25.5530 C   0  0  0  0  0  0  0  0  0  0  0  0
   -8.9781    4.0300   26.2200 C   0  0  0  0  0  0  0  0  0  0  0  0
   -7.9493    6.0343   27.8951 N   0  0  0  0  0  0  0  0  0  0  0  0
  -10.3836    3.1260   24.4284 C   0  0  0  0  0  0  0  0  0  0  0  0
  -11.0143    4.2995   24.2247 C   0  0  0  0  0  0  0  0  0  0  0  0
  -11.9556    4.5112   23.1875 C   0  0  0  0  0  0  0  0  0  0  0  0
  -12.2256    3.4501   22.3239 C   0  0  0  0  0  0  0  0  0  0  0  0
  -10.6988    2.1617   23.5340 C   0  0  0  0  0  0  0  0  0  0  0  0
  -11.5410    2.2875   22.4949 C   0  0  0  0  0  0  0  0  0  0  0  0
   -8.5551    6.6219   26.8420 C   0  0  0  0  0  0  0  0  0  0  0  0
   -9.1003    5.6122   25.9929 N   0  0  0  0  0  0  0  0  0  0  0  0
   -8.8537    7.8190   26.6637 N   0  0  0  0  0  0  0  0  0  0  0  0
   -7.3748    0.2346   27.0924 C   0  0  0  0  0  0  0  0  0  0  0  0
   -6.0897    0.0925   27.6332 C   0  0  0  0  0  0  0  0  0  0  0  0
   -5.5794   -1.1537   28.0006 C   0  0  0  0  0  0  0  0  0  0  0  0
   -4.2593   -1.2209   28.5589 C   0  0  0  0  0  0  0  0  0  0  0  0
   -3.4893   -0.0421   28.7553 C   0  0  0  0  0  0  0  0  0  0  0  0
   -4.0612    1.1999   28.4197 C   0  0  0  0  0  0  0  0  0  0  0  0
   -5.2824    1.2927   27.9032 C   0  0  0  0  0  0  0  0  0  0  0  0
  6  9  1  0
 15 17  1  0
  4 18  1  0
 18 19  1  0
  1  2  2  0
  2  8  1  0
  8 15  2  0
 15 16  1  0
 16  7  2  0
 19 20  2  0
 20 21  1  0
 21 22  2  0
 22 23  1  0
 23 24  2  0
 24 19  1  0
  9 10  2  0
 10 11  1  0
 11 12  2  0
 12 14  1  0
 14 13  2  0
 13  9  1  0
  1  3  1  0
  3  4  2  0
  4  5  1  0
  5  6  2  0
  6  7  1  0
  7  1  1  0
M  END
$$$$
