No_4413-complexes_sdf/6BKW-FPZ/2024-09-17-14-21-01/
     RDKit          3D

 29 31  0  0  0  0  0  0  0  0999 V2000
   -7.2496    3.8871   27.4508 C   0  0  0  0  0  0  0  0  0  0  0  0
   -7.9379    4.9063   27.8518 C   0  0  0  0  0  0  0  0  0  0  0  0
   -9.3376    4.8647   27.7795 C   0  0  0  0  0  0  0  0  0  0  0  0
   -7.8544    2.6294   27.0414 C   0  0  0  0  0  0  0  0  0  0  0  0
   -7.2035    1.5022   26.7428 C   0  0  0  0  0  0  0  0  0  0  0  0
  -10.0282    3.7363   27.4999 C   0  0  0  0  0  0  0  0  0  0  0  0
   -9.2866    2.5941   27.1521 C   0  0  0  0  0  0  0  0  0  0  0  0
   -6.0870    1.1544   27.4203 N   0  0  0  0  0  0  0  0  0  0  0  0
   -5.6265    0.0454   27.7386 C   0  0  0  0  0  0  0  0  0  0  0  0
   -4.5846   -0.3530   27.5193 C   0  0  0  0  0  0  0  0  0  0  0  0
   -6.5811   -0.7408   28.5316 C   0  0  0  0  0  0  0  0  0  0  0  0
   -4.0137   -1.6435   27.7818 C   0  0  0  0  0  0  0  0  0  0  0  0
   -6.1599   -2.0532   28.9670 C   0  0  0  0  0  0  0  0  0  0  0  0
   -4.8566   -2.4731   28.5900 C   0  0  0  0  0  0  0  0  0  0  0  0
  -11.4996    3.6549   27.6226 C   0  0  0  0  0  0  0  0  0  0  0  0
  -11.9835    3.0586   28.7907 C   0  0  0  0  0  0  0  0  0  0  0  0
  -13.3443    2.9656   29.1099 C   0  0  0  0  0  0  0  0  0  0  0  0
  -14.2167    3.5996   28.2095 C   0  0  0  0  0  0  0  0  0  0  0  0
  -13.7291    4.2446   27.0788 C   0  0  0  0  0  0  0  0  0  0  0  0
  -12.3662    4.3612   26.8252 C   0  0  0  0  0  0  0  0  0  0  0  0
   -7.2888    6.0372   28.1484 F   0  0  0  0  0  0  0  0  0  0  0  0
   -7.5752    0.7165   25.8372 O   0  0  0  0  0  0  0  0  0  0  0  0
  -13.8130    2.2006   30.2861 C   0  0  0  0  0  0  0  0  0  0  0  0
  -13.6077    0.9709   30.1565 F   0  0  0  0  0  0  0  0  0  0  0  0
  -15.1706    2.3837   30.4185 F   0  0  0  0  0  0  0  0  0  0  0  0
  -13.3244    2.7504   31.4233 F   0  0  0  0  0  0  0  0  0  0  0  0
   -3.5274    0.5113   26.7273 C   0  0  0  0  0  0  0  0  0  0  0  0
   -2.6220    1.1313   27.4530 O   0  0  0  0  0  0  0  0  0  0  0  0
   -3.2165    0.1416   25.5730 O   0  0  0  0  0  0  0  0  0  0  0  0
  4  5  1  0
  5  8  1  0
  8  9  1  0
  6 15  1  0
  2 21  1  0
  5 22  2  0
 17 23  1  0
 23 24  1  0
 23 25  1  0
 23 26  1  0
 10 27  1  0
 27 28  2  0
 27 29  1  0
  1  2  2  0
  2  3  1  0
  3  6  2  0
  6  7  1  0
  7  4  2  0
  4  1  1  0
  9 10  2  0
 10 12  1  0
 12 14  2  0
 14 13  1  0
 13 11  2  0
 11  9  1  0
 15 16  2  0
 16 17  1  0
 17 18  2  0
 18 19  1  0
 19 20  2  0
 20 15  1  0
M  END
$$$$
