No_4984-complexes_sdf/6BKW-FPZ/2024-09-17-14-21-01/
     RDKit          3D

 22 23  0  0  0  0  0  0  0  0999 V2000
   -7.7129    4.2099   27.0854 C   0  0  0  0  0  0  0  0  0  0  0  0
   -7.7814    5.1722   27.8972 C   0  0  0  0  0  0  0  0  0  0  0  0
   -8.8998    3.8713   26.3707 C   0  0  0  0  0  0  0  0  0  0  0  0
   -9.9938    4.6774   26.5446 C   0  0  0  0  0  0  0  0  0  0  0  0
   -8.7789    6.1536   27.9256 C   0  0  0  0  0  0  0  0  0  0  0  0
   -9.9428    5.8398   27.2296 C   0  0  0  0  0  0  0  0  0  0  0  0
   -8.9119    2.6447   25.5685 C   0  0  2  0  0  0  0  0  0  0  0  0
   -8.3051    1.4797   26.1124 C   0  0  0  0  0  0  0  0  0  0  0  0
   -8.1599    0.3428   25.3874 C   0  0  0  0  0  0  0  0  0  0  0  0
   -8.7775    0.3549   24.1135 C   0  0  0  0  0  0  0  0  0  0  0  0
   -9.4260    1.4644   23.5719 C   0  0  0  0  0  0  0  0  0  0  0  0
   -9.4305    2.6267   24.3088 C   0  0  2  0  0  0  0  0  0  0  0  0
  -10.0089    3.6757   23.7716 F   0  0  0  0  0  0  0  0  0  0  0  0
  -10.3982    2.7572   23.9996 P   0  0  1  0  0  0  0  0  0  0  0  0
   -9.2279    1.2586   22.0846 C   0  0  0  0  0  0  0  0  0  0  0  0
   -9.7646    0.4132   23.6384 C   0  0  1  0  0  0  0  0  0  0  0  0
  -11.0877    2.8407   22.4272 O   0  0  0  0  0  0  0  0  0  0  0  0
  -10.8574   -0.1572   24.2118 C   0  0  0  0  0  0  0  0  0  0  0  0
  -11.6264    2.3719   24.7068 O   0  0  0  0  0  0  0  0  0  0  0  0
   -9.6707   -0.6405   22.4446 C   0  0  0  0  0  0  0  0  0  0  0  0
   -9.2739    0.1206   21.3669 C   0  0  0  0  0  0  0  0  0  0  0  0
  -10.9301    2.6417   24.9173 F   0  0  0  0  0  0  0  0  0  0  0  0
  7  3  1  6
  7  8  1  0
  8  9  2  3
  9 10  1  0
 10 11  2  3
  7 12  1  0
 12 13  1  6
 12 14  1  0
 11 15  1  0
 11 16  1  0
 14 17  2  0
 16 18  1  6
 14 19  1  1
 16 20  1  0
 15 21  1  0
 20 21  1  0
 19 22  1  0
  1  2  2  0
  2  5  1  0
  5  6  2  0
  6  4  1  0
  4  3  2  0
  3  1  1  0
M  END
$$$$
