No_4621-complexes_sdf/6BKW-FPZ/2024-09-17-14-21-01/
     RDKit          3D

 31 34  0  0  0  0  0  0  0  0999 V2000
   -7.7129    4.2099   27.0854 C   0  0  0  0  0  0  0  0  0  0  0  0
   -7.7814    5.1722   27.8972 C   0  0  0  0  0  0  0  0  0  0  0  0
   -8.8998    3.8713   26.3707 C   0  0  0  0  0  0  0  0  0  0  0  0
   -8.9563    2.6796   25.5490 C   0  0  0  0  0  0  0  0  0  0  0  0
   -8.8131    6.1334   27.9344 C   0  0  0  0  0  0  0  0  0  0  0  0
   -9.9804    5.8121   27.1929 C   0  0  0  0  0  0  0  0  0  0  0  0
   -9.9861    4.6836   26.4532 C   0  0  0  0  0  0  0  0  0  0  0  0
   -8.3254    1.5773   26.0196 N   0  0  0  0  0  0  0  0  0  0  0  0
   -7.7919    1.5409   27.1793 C   0  0  0  0  0  0  0  0  0  0  0  0
   -8.3363    0.4465   25.1029 C   0  0  0  0  0  0  0  0  0  0  0  0
   -7.0595    0.2005   27.5165 C   0  0  0  0  0  0  0  0  0  0  0  0
   -7.6727   -0.7030   25.4381 C   0  0  0  0  0  0  0  0  0  0  0  0
   -7.0326   -0.7897   26.6766 C   0  0  0  0  0  0  0  0  0  0  0  0
   -9.5898    2.6973   24.4891 O   0  0  0  0  0  0  0  0  0  0  0  0
   -6.6858    5.5625   28.6581 O   0  0  0  0  0  0  0  0  0  0  0  0
   -6.2519   -1.9788   26.9081 C   0  0  0  0  0  0  0  0  0  0  0  0
   -5.1697   -1.8551   27.7184 C   0  0  0  0  0  0  0  0  0  0  0  0
   -4.8131   -0.6159   28.1066 C   0  0  0  0  0  0  0  0  0  0  0  0
   -5.8544    0.4539   28.3013 C   0  0  0  0  0  0  0  0  0  0  0  0
   -3.7160   -0.4213   29.2394 C   0  0  0  0  0  0  0  0  0  0  0  0
   -3.5334   -1.0917   30.1781 C   0  0  0  0  0  0  0  0  0  0  0  0
   -3.5521   -0.9335   31.2549 C   0  0  0  0  0  0  0  0  0  0  0  0
   -3.4300   -1.8945   32.3658 C   0  0  0  0  0  0  0  0  0  0  0  0
   -3.2522   -3.1815   31.9969 C   0  0  0  0  0  0  0  0  0  0  0  0
   -3.4476   -2.5843   29.9310 C   0  0  0  0  0  0  0  0  0  0  0  0
   -3.2285   -3.4863   30.8293 C   0  0  0  0  0  0  0  0  0  0  0  0
   -2.5818    0.0751   28.4983 O   0  0  0  0  0  0  0  0  0  0  0  0
   -6.4568   -3.1858   26.2038 C   0  0  0  0  0  0  0  0  0  0  0  0
   -6.0750   -3.2001   25.0883 F   0  0  0  0  0  0  0  0  0  0  0  0
   -5.7479   -4.1397   26.9103 F   0  0  0  0  0  0  0  0  0  0  0  0
   -7.7443   -3.5082   26.3375 F   0  0  0  0  0  0  0  0  0  0  0  0
  3  4  1  0
  4  8  1  0
  8  9  1  0
  8 10  1  0
 12 13  1  0
  4 14  2  0
  2 15  1  0
 18 20  1  0
 20 21  1  0
 20 27  2  0
 16 28  1  0
 28 29  1  0
 28 30  1  0
 28 31  1  0
  9 11  1  0
 12 10  1  0
 11 13  2  0
 13 16  1  0
 16 17  2  0
 17 18  1  0
 18 19  2  0
 19 11  1  0
 21 22  2  0
 22 23  1  0
 23 24  2  0
 24 26  1  0
 26 25  2  0
 25 21  1  0
  1  2  2  0
  2  5  1  0
  5  6  2  0
  6  7  1  0
  7  3  2  0
  3  1  1  0
M  END
$$$$
