No_4715-complexes_sdf/6BKW-FPZ/2024-09-17-14-21-01/
     RDKit          3D

  5  4  0  0  0  0  0  0  0  0999 V2000
   -7.9040    3.9820   27.1177 C   0  0  0  0  0  0  0  0  0  0  0  0
   -8.2057    2.8231   26.8733 C   0  0  0  0  0  0  0  0  0  0  0  0
   -7.4766    1.7477   27.4593 C   0  0  0  0  0  0  0  0  0  0  0  0
   -7.5078    4.6347   27.8842 C   0  0  0  0  0  0  0  0  0  0  0  0
   -7.7025    0.3906   27.3345 C   0  0  0  0  0  0  0  0  0  0  0  0
  1  2  2  3
  2  3  1  0
  1  4  1  0
  3  5  2  0
M  END
$$$$
