No_4517-complexes_sdf/6BKW-FPZ/2024-09-17-14-21-01/
     RDKit          3D

 16 17  0  0  0  0  0  0  0  0999 V2000
   -7.7129    4.2099   27.0854 C   0  0  0  0  0  0  0  0  0  0  0  0
   -7.7814    5.1722   27.8972 C   0  0  0  0  0  0  0  0  0  0  0  0
   -8.8998    3.8713   26.3707 C   0  0  0  0  0  0  0  0  0  0  0  0
   -9.9938    4.6774   26.5446 C   0  0  0  0  0  0  0  0  0  0  0  0
   -8.7789    6.1536   27.9256 C   0  0  0  0  0  0  0  0  0  0  0  0
   -9.9428    5.8398   27.2296 C   0  0  0  0  0  0  0  0  0  0  0  0
   -8.9208    2.6404   25.5721 C   0  0  0  0  0  0  0  0  0  0  0  0
   -9.8143    2.5212   24.5327 C   0  0  0  0  0  0  0  0  0  0  0  0
  -10.6119    3.5586   24.2578 C   0  0  0  0  0  0  0  0  0  0  0  0
  -10.9734    4.5425   25.3810 C   0  0  0  0  0  0  0  0  0  0  0  0
  -11.6442    3.4878   23.2188 C   0  0  2  0  0  0  0  0  0  0  0  0
  -11.1504    3.4292   22.0568 C   0  0  0  0  0  0  0  0  0  0  0  0
   -9.8263    3.5688   21.7896 C   0  0  0  0  0  0  0  0  0  0  0  0
  -12.0892    3.3628   20.8600 C   0  0  0  0  0  0  0  0  0  0  0  0
   -6.6752    5.5570   28.6643 O   0  0  0  0  0  0  0  0  0  0  0  0
  -12.8666    3.5763   23.4900 F   0  0  0  0  0  0  0  0  0  0  0  0
  9 11  1  0
 11 12  1  0
 12 13  1  0
 12 14  1  0
  2 15  1  0
 11 16  1  6
  4 10  2  0
 10  9  1  0
  9  8  2  0
  8  7  1  0
  7  3  2  0
  1  2  2  0
  2  5  1  0
  5  6  2  0
  6  4  1  0
  4  3  1  0
  3  1  1  0
M  END
$$$$
