No_4815-complexes_sdf/6BKW-FPZ/2024-09-17-14-21-01/
     RDKit          3D

 14 14  0  0  0  0  0  0  0  0999 V2000
   -7.9040    3.9820   27.1177 C   0  0  2  0  0  0  0  0  0  0  0  0
   -9.0711    4.3164   27.0630 C   0  0  2  0  0  0  0  0  0  0  0  0
   -9.9692    3.7224   26.1073 C   0  0  0  0  0  0  0  0  0  0  0  0
   -7.4776    2.6994   26.6283 C   0  0  0  0  0  0  0  0  0  0  0  0
   -8.4406    1.9440   25.9776 C   0  0  0  0  0  0  0  0  0  0  0  0
   -9.6379    2.5001   25.6881 C   0  0  2  0  0  0  0  0  0  0  0  0
   -6.9546    4.4721   27.9770 F   0  0  0  0  0  0  0  0  0  0  0  0
  -10.7178    1.9162   24.7792 C   0  0  0  0  0  0  0  0  0  0  0  0
  -11.4348    1.0395   24.9040 F   0  0  0  0  0  0  0  0  0  0  0  0
  -11.2447    2.9697   24.3250 F   0  0  0  0  0  0  0  0  0  0  0  0
   -9.8056    1.4247   23.8250 F   0  0  0  0  0  0  0  0  0  0  0  0
   -9.4205    5.7632   27.5511 C   0  0  0  0  0  0  0  0  0  0  0  0
  -10.2115    2.2402   26.4828 F   0  0  0  0  0  0  0  0  0  0  0  0
  -10.7227    4.5187   25.5752 O   0  0  0  0  0  0  0  0  0  0  0  0
  2  3  1  0
  1  4  1  0
  3  6  1  0
  5  6  1  0
  1  7  1  1
  6  8  1  0
  8  9  1  0
  8 10  1  0
  8 11  1  0
  2 12  1  6
  6 13  1  1
  3 14  2  0
  2  1  1  0
  4  5  1  0
M  END
$$$$
