No_4461-complexes_sdf/6BKW-FPZ/2024-09-17-14-21-01/
     RDKit          3D

 10  9  0  0  0  0  0  0  0  0999 V2000
   -7.9040    3.9820   27.1177 C   0  0  0  0  0  0  0  0  0  0  0  0
   -7.8663    4.8694   27.9238 C   0  0  0  0  0  0  0  0  0  0  0  0
   -9.0806    3.1428   27.1220 C   0  0  0  0  0  0  0  0  0  0  0  0
   -8.9544    1.8782   26.5467 C   0  0  0  0  0  0  0  0  0  0  0  0
   -6.7151    5.8072   27.9111 C   0  0  0  0  0  0  0  0  0  0  0  0
   -7.9998    1.0534   27.0438 C   0  0  0  0  0  0  0  0  0  0  0  0
   -7.8789   -0.2478   26.5614 C   0  0  0  0  0  0  0  0  0  0  0  0
   -6.9932   -1.0981   27.1452 C   0  0  0  0  0  0  0  0  0  0  0  0
   -5.9993   -0.8924   27.2391 C   0  0  0  0  0  0  0  0  0  0  0  0
   -5.6031    0.6070   27.5485 C   0  0  0  0  0  0  0  0  0  0  0  0
  1  2  1  0
  1  3  1  0
  3  4  1  0
  2  5  1  0
  4  6  2  3
  6  7  1  0
  7  8  1  0
  8  9  2  3
  9 10  1  0
M  END
$$$$
