No_4333-complexes_sdf/6BKW-FPZ/2024-09-17-14-21-01/
     RDKit          3D

 25 28  0  0  0  0  0  0  0  0999 V2000
   -7.7129    4.2099   27.0854 C   0  0  0  0  0  0  0  0  0  0  0  0
   -7.7814    5.1722   27.8972 C   0  0  0  0  0  0  0  0  0  0  0  0
   -8.8255    3.2789   27.1191 C   0  0  0  0  0  0  0  0  0  0  0  0
   -9.9209    3.4734   27.9101 C   0  0  0  0  0  0  0  0  0  0  0  0
   -9.9736    4.7085   28.6831 C   0  0  0  0  0  0  0  0  0  0  0  0
   -8.8840    5.5441   28.6612 C   0  0  0  0  0  0  0  0  0  0  0  0
   -8.7102    2.0171   26.3293 C   0  0  0  0  0  0  0  0  0  0  0  0
   -9.2831    1.9661   25.0865 C   0  0  0  0  0  0  0  0  0  0  0  0
   -9.8840    3.1000   24.5392 C   0  0  0  0  0  0  0  0  0  0  0  0
  -10.1574    4.2252   25.1853 C   0  0  0  0  0  0  0  0  0  0  0  0
  -10.3255    2.9173   23.0979 C   0  0  0  0  0  0  0  0  0  0  0  0
  -10.8300    4.0395   22.4620 C   0  0  0  0  0  0  0  0  0  0  0  0
  -10.7818    5.1697   24.3640 C   0  0  0  0  0  0  0  0  0  0  0  0
  -11.0794    5.1704   23.0885 C   0  0  0  0  0  0  0  0  0  0  0  0
   -7.9268    0.9618   26.9159 C   0  0  0  0  0  0  0  0  0  0  0  0
   -7.7579   -0.2611   26.3764 C   0  0  0  0  0  0  0  0  0  0  0  0
   -8.3880   -0.3024   25.0211 C   0  0  0  0  0  0  0  0  0  0  0  0
   -9.0675    0.7708   24.3803 C   0  0  0  0  0  0  0  0  0  0  0  0
  -10.9256    2.6907   27.9808 O   0  0  0  0  0  0  0  0  0  0  0  0
  -12.0854    2.9430   28.6902 C   0  0  0  0  0  0  0  0  0  0  0  0
  -12.7854    1.7672   29.1295 C   0  0  0  0  0  0  0  0  0  0  0  0
  -13.7490    1.8939   30.0603 C   0  0  0  0  0  0  0  0  0  0  0  0
  -14.1762    3.2104   30.4903 C   0  0  0  0  0  0  0  0  0  0  0  0
  -13.5380    4.3231   30.0136 C   0  0  0  0  0  0  0  0  0  0  0  0
  -12.4549    4.1598   29.1948 C   0  0  0  0  0  0  0  0  0  0  0  0
  3  7  1  0
  8  9  1  0
  4 19  1  0
 19 20  1  0
  9 10  2  0
 10 13  1  0
 13 14  2  0
 14 12  1  0
 12 11  2  0
 11  9  1  0
 20 21  2  0
 21 22  1  0
 22 23  2  0
 23 24  1  0
 24 25  2  0
 25 20  1  0
  1  2  2  0
  2  6  1  0
  6  5  2  0
  5  4  1  0
  4  3  2  0
  3  1  1  0
  7  8  2  0
  8 18  1  0
 18 17  2  0
 17 16  1  0
 16 15  2  0
 15  7  1  0
M  END
$$$$
