No_4812-complexes_sdf/6BKW-FPZ/2024-09-17-14-21-01/
     RDKit          3D

 21 23  0  0  0  0  0  0  0  0999 V2000
   -7.7129    4.2099   27.0854 C   0  0  0  0  0  0  0  0  0  0  0  0
   -8.2112    3.0637   26.9225 C   0  0  0  0  0  0  0  0  0  0  0  0
   -8.5108    5.3904   26.9436 C   0  0  0  0  0  0  0  0  0  0  0  0
   -7.9752    6.6981   27.2112 C   0  0  0  0  0  0  0  0  0  0  0  0
   -9.5213    2.8208   26.4688 C   0  0  0  0  0  0  0  0  0  0  0  0
  -10.2979    3.9327   26.2378 C   0  0  0  0  0  0  0  0  0  0  0  0
   -9.7894    5.2123   26.4395 C   0  0  0  0  0  0  0  0  0  0  0  0
   -7.3451    1.8185   27.1796 C   0  0  0  0  0  0  0  0  0  0  0  0
   -6.1581    1.9961   27.7424 N   0  0  0  0  0  0  0  0  0  0  0  0
   -5.4007    0.8419   28.0047 C   0  0  0  0  0  0  0  0  0  0  0  0
   -5.9583   -0.3538   27.8201 C   0  0  0  0  0  0  0  0  0  0  0  0
   -7.5437    0.3424   27.1870 C   0  0  0  0  0  0  0  0  0  0  0  0
   -4.1056    0.9571   28.5360 N   0  0  0  0  0  0  0  0  0  0  0  0
   -8.6232    7.8072   26.8035 N   0  0  0  0  0  0  0  0  0  0  0  0
   -7.0613    6.8541   28.1176 O   0  0  0  0  0  0  0  0  0  0  0  0
   -3.3504   -0.1477   28.8757 C   0  0  0  0  0  0  0  0  0  0  0  0
   -2.7579   -0.4312   29.6809 C   0  0  0  0  0  0  0  0  0  0  0  0
   -1.9368   -1.5661   29.9558 C   0  0  0  0  0  0  0  0  0  0  0  0
   -1.9165   -2.4644   28.9343 C   0  0  0  0  0  0  0  0  0  0  0  0
   -3.1265   -1.3151   27.8945 C   0  0  0  0  0  0  0  0  0  0  0  0
   -2.4149   -2.3198   28.0807 N   0  0  0  0  0  0  0  0  0  0  0  0
  3  4  1  0
  2  8  1  0
  8  9  2  0
  9 10  1  0
 10 11  2  0
  8 12  1  0
 11 12  1  0
 10 13  1  0
  4 14  1  0
  4 15  2  0
 13 16  1  0
 16 17  2  0
 17 18  1  0
 18 19  2  0
 16 20  1  0
 19 20  1  0
 19 21  1  0
  1  2  2  0
  2  5  1  0
  5  6  2  0
  6  7  1  0
  7  3  2  0
  3  1  1  0
M  END
$$$$
