No_4860-complexes_sdf/6BKW-FPZ/2024-09-17-14-21-01/
     RDKit          3D

 35 39  0  0  0  0  0  0  0  0999 V2000
   -7.7129    4.2099   27.0854 C   0  0  0  0  0  0  0  0  0  0  0  0
   -8.9133    4.4736   27.0998 C   0  0  2  0  0  0  0  0  0  0  0  0
   -9.7135    3.9633   26.0300 C   0  0  0  0  0  0  0  0  0  0  0  0
   -6.8655    4.8824   28.1822 C   0  0  0  0  0  0  0  0  0  0  0  0
  -10.8856    4.5824   25.6430 C   0  0  0  0  0  0  0  0  0  0  0  0
   -7.6664    5.7849   28.7962 N   0  0  0  0  0  0  0  0  0  0  0  0
   -8.8934    5.5511   27.9459 C   0  0  0  0  0  0  0  0  0  0  0  0
  -11.7171    3.9099   24.8297 C   0  0  0  0  0  0  0  0  0  0  0  0
  -12.9039    4.5246   24.3674 C   0  0  0  0  0  0  0  0  0  0  0  0
   -9.4671    2.7596   25.4398 C   0  0  0  0  0  0  0  0  0  0  0  0
  -10.1916    2.1452   24.5208 C   0  0  0  0  0  0  0  0  0  0  0  0
  -11.3511    2.7443   24.1538 C   0  0  0  0  0  0  0  0  0  0  0  0
  -13.4284    4.6568   23.1271 C   0  0  0  0  0  0  0  0  0  0  0  0
  -12.6633    4.0816   22.0863 C   0  0  0  0  0  0  0  0  0  0  0  0
  -11.7974    2.9208   22.5815 C   0  0  0  0  0  0  0  0  0  0  0  0
   -9.7925    0.9047   23.8070 C   0  0  0  0  0  0  0  0  0  0  0  0
   -9.6230    0.7602   22.7579 C   0  0  0  0  0  0  0  0  0  0  0  0
   -9.0849   -0.4739   22.0866 C   0  0  0  0  0  0  0  0  0  0  0  0
   -8.6537   -1.4517   22.9274 C   0  0  0  0  0  0  0  0  0  0  0  0
   -9.2227   -0.1428   24.7414 C   0  0  0  0  0  0  0  0  0  0  0  0
   -8.7176   -1.2783   24.2719 C   0  0  0  0  0  0  0  0  0  0  0  0
   -5.6405    4.5758   28.4838 N   0  0  0  0  0  0  0  0  0  0  0  0
   -8.1751   -2.5754   22.3444 F   0  0  0  0  0  0  0  0  0  0  0  0
   -8.2417   -2.2787   25.0539 O   0  0  0  0  0  0  0  0  0  0  0  0
   -8.1682   -2.0354   26.1805 C   0  0  0  0  0  0  0  0  0  0  0  0
   -7.0634   -1.3922   26.7970 C   0  0  0  0  0  0  0  0  0  0  0  0
   -6.2734   -1.8919   27.6241 C   0  0  0  0  0  0  0  0  0  0  0  0
   -5.2170   -1.0992   28.3085 C   0  0  0  0  0  0  0  0  0  0  0  0
   -5.0162    0.0204   28.0546 C   0  0  0  0  0  0  0  0  0  0  0  0
   -5.9429    0.8007   27.2089 C   0  0  0  0  0  0  0  0  0  0  0  0
   -6.9020    0.0886   26.5932 C   0  0  0  0  0  0  0  0  0  0  0  0
   -4.0015    0.9287   28.7959 C   0  0  0  0  0  0  0  0  0  0  0  0
   -3.4638    0.5231   29.8949 O   0  0  0  0  0  0  0  0  0  0  0  0
   -3.7738    2.1157   28.3055 O   0  0  0  0  0  0  0  0  0  0  0  0
   -9.0523   -2.6542   26.9923 O   0  0  0  0  0  0  0  0  0  0  0  0
  1  2  1  0
  1  4  1  0
  4  6  2  0
  2  7  1  0
  6  7  1  0
 11 16  1  0
  4 22  1  0
 19 23  1  0
 21 24  1  0
 24 25  1  0
 25 26  1  0
 29 32  1  0
 32 33  2  0
 32 34  1  0
 25 35  2  0
  2  3  1  6
 26 27  2  0
 27 28  1  0
 28 29  2  0
 29 30  1  0
 30 31  2  0
 31 26  1  0
  8  9  2  0
  9 13  1  0
 13 14  2  0
 14 15  1  0
 15 12  2  0
  3  5  2  0
  5  8  1  0
  8 12  1  0
 12 11  1  0
 11 10  2  0
 10  3  1  0
 16 17  2  0
 17 18  1  0
 18 19  2  0
 19 21  1  0
 21 20  2  0
 20 16  1  0
M  END
$$$$
