No_4951-complexes_sdf/6BKW-FPZ/2024-09-17-14-21-01/
     RDKit          3D

 34 37  0  0  0  0  0  0  0  0999 V2000
   -7.7129    4.2099   27.0854 C   0  0  0  0  0  0  0  0  0  0  0  0
   -7.7814    5.1722   27.8972 C   0  0  0  0  0  0  0  0  0  0  0  0
   -8.8255    3.2789   27.1191 C   0  0  0  0  0  0  0  0  0  0  0  0
   -9.9209    3.4734   27.9101 C   0  0  0  0  0  0  0  0  0  0  0  0
  -10.0316    4.7089   28.6463 C   0  0  0  0  0  0  0  0  0  0  0  0
   -8.9258    5.5669   28.6427 C   0  0  0  0  0  0  0  0  0  0  0  0
   -8.6970    1.9978   26.3619 C   0  0  0  0  0  0  0  0  0  0  0  0
   -7.8789    0.9627   26.7437 C   0  0  0  0  0  0  0  0  0  0  0  0
   -7.7679   -0.1982   26.1053 C   0  0  0  0  0  0  0  0  0  0  0  0
   -9.4373    1.8610   25.2035 C   0  0  0  0  0  0  0  0  0  0  0  0
   -9.3397    0.7333   24.4061 C   0  0  0  0  0  0  0  0  0  0  0  0
   -8.4848   -0.2828   24.8771 C   0  0  0  0  0  0  0  0  0  0  0  0
  -10.9288    2.6502   27.9679 O   0  0  0  0  0  0  0  0  0  0  0  0
  -12.2567    2.8950   27.7470 C   0  0  2  0  0  0  0  0  0  0  0  0
  -13.0333    2.3301   28.7560 C   0  0  1  0  0  0  0  0  0  0  0  0
  -12.8278    1.1518   29.3349 C   0  0  0  0  0  0  0  0  0  0  0  0
  -12.3400    0.2074   28.3832 C   0  0  0  0  0  0  0  0  0  0  0  0
  -13.1575   -0.9826   28.3332 C   0  0  0  0  0  0  0  0  0  0  0  0
  -12.7965   -1.8616   27.9624 C   0  0  0  0  0  0  0  0  0  0  0  0
  -11.4762   -2.0663   27.1971 C   0  0  0  0  0  0  0  0  0  0  0  0
  -10.6890   -0.9326   27.2518 C   0  0  0  0  0  0  0  0  0  0  0  0
  -11.0848    0.2092   27.9291 C   0  0  0  0  0  0  0  0  0  0  0  0
  -12.6265    2.6642   26.3760 C   0  0  0  0  0  0  0  0  0  0  0  0
  -12.8445    3.7821   25.5976 C   0  0  0  0  0  0  0  0  0  0  0  0
  -12.7197    3.7206   24.1642 C   0  0  0  0  0  0  0  0  0  0  0  0
  -14.1322    3.1862   29.2861 C   0  0  0  0  0  0  0  0  0  0  0  0
  -14.5542    3.0758   30.5727 C   0  0  0  0  0  0  0  0  0  0  0  0
  -15.5035    3.9198   31.0393 C   0  0  0  0  0  0  0  0  0  0  0  0
  -14.6613    4.2542   28.5734 C   0  0  0  0  0  0  0  0  0  0  0  0
  -15.5907    5.1935   29.0126 C   0  0  0  0  0  0  0  0  0  0  0  0
  -15.9777    5.0390   30.3535 C   0  0  0  0  0  0  0  0  0  0  0  0
  -11.7423    4.4413   23.5931 C   0  0  0  0  0  0  0  0  0  0  0  0
  -11.5656    4.3901   22.1360 C   0  0  0  0  0  0  0  0  0  0  0  0
  -12.4748    3.6781   21.4071 C   0  0  0  0  0  0  0  0  0  0  0  0
  3  7  1  0
  4 13  1  0
 13 14  1  0
 14 15  1  0
 15 16  1  1
 16 17  1  0
 14 23  1  6
 23 24  1  0
 24 25  2  3
 15 26  1  0
 25 32  1  0
 32 33  2  3
 33 34  1  0
 17 18  2  0
 18 19  1  0
 19 20  2  0
 20 21  1  0
 21 22  2  0
 22 17  1  0
 26 27  2  0
 27 28  1  0
 28 31  2  0
 31 30  1  0
 30 29  2  0
 29 26  1  0
  1  2  2  0
  2  6  1  0
  6  5  2  0
  5  4  1  0
  4  3  2  0
  3  1  1  0
  7  8  2  0
  8  9  1  0
  9 12  2  0
 12 11  1  0
 11 10  2  0
 10  7  1  0
M  END
$$$$
