No_4164-complexes_sdf/6BKW-FPZ/2024-09-17-14-21-01/
     RDKit          3D

 14 14  0  0  0  0  0  0  0  0999 V2000
   -7.9040    3.9820   27.1177 C   0  0  0  0  0  0  0  0  0  0  0  0
   -9.0711    4.3164   27.0630 C   0  0  0  0  0  0  0  0  0  0  0  0
   -9.5182    5.5541   27.5777 C   0  0  0  0  0  0  0  0  0  0  0  0
   -7.4468    2.6843   26.6499 C   0  0  0  0  0  0  0  0  0  0  0  0
   -8.3856    1.7878   26.2216 C   0  0  0  0  0  0  0  0  0  0  0  0
   -9.6812    2.2328   26.0889 C   0  0  0  0  0  0  0  0  0  0  0  0
  -10.0147    3.4312   26.5259 C   0  0  0  0  0  0  0  0  0  0  0  0
   -7.9132    0.4733   25.8127 C   0  0  0  0  0  0  0  0  0  0  0  0
   -7.3372   -0.3146   26.4746 O   0  0  0  0  0  0  0  0  0  0  0  0
   -7.9301    0.2713   24.4974 O   0  0  0  0  0  0  0  0  0  0  0  0
   -9.1075    5.9313   28.4480 F   0  0  0  0  0  0  0  0  0  0  0  0
  -10.8136    5.8662   27.4185 F   0  0  0  0  0  0  0  0  0  0  0  0
   -8.9222    6.5488   26.6076 F   0  0  0  0  0  0  0  0  0  0  0  0
   -6.8689    4.6594   27.7617 O   0  0  0  0  0  0  0  0  0  0  0  0
  2  3  1  0
  5  8  1  0
  8  9  2  0
  8 10  1  0
  3 11  1  0
  3 12  1  0
  3 13  1  0
  1 14  1  0
  1  2  2  0
  2  7  1  0
  7  6  2  0
  6  5  1  0
  5  4  2  0
  4  1  1  0
M  END
$$$$
