No_4576-complexes_sdf/6BKW-FPZ/2024-09-17-14-21-01/
     RDKit          3D

 19 20  0  0  0  0  0  0  0  0999 V2000
   -7.9040    3.9820   27.1177 C   0  0  0  0  0  0  0  0  0  0  0  0
   -8.2057    2.8231   26.8733 C   0  0  0  0  0  0  0  0  0  0  0  0
   -7.4766    1.7477   27.4593 C   0  0  0  0  0  0  0  0  0  0  0  0
   -8.7468    5.1251   26.6967 C   0  0  0  0  0  0  0  0  0  0  0  0
   -8.4775    6.4967   27.1056 C   0  0  0  0  0  0  0  0  0  0  0  0
   -6.1172    2.0790   27.8378 C   0  0  0  0  0  0  0  0  0  0  0  0
   -5.2892    1.0227   28.4035 C   0  0  0  0  0  0  0  0  0  0  0  0
   -3.9563    1.3202   28.7885 C   0  0  0  0  0  0  0  0  0  0  0  0
   -9.2702    7.5264   26.6941 C   0  0  0  0  0  0  0  0  0  0  0  0
   -5.5910   -0.2902   27.7596 C   0  0  0  0  0  0  0  0  0  0  0  0
   -6.8429   -0.6237   27.4078 C   0  0  0  0  0  0  0  0  0  0  0  0
   -7.7284    0.4419   27.0608 C   0  0  0  0  0  0  0  0  0  0  0  0
   -9.3685    2.5320   26.1318 C   0  0  0  0  0  0  0  0  0  0  0  0
  -10.1269    3.5927   25.5353 C   0  0  0  0  0  0  0  0  0  0  0  0
   -9.7671    4.8937   25.8681 C   0  0  0  0  0  0  0  0  0  0  0  0
   -7.1594    6.7066   27.7483 C   0  0  0  0  0  0  0  0  0  0  0  0
   -3.5622    0.5863   29.5815 F   0  0  0  0  0  0  0  0  0  0  0  0
   -3.9522    2.5410   29.4005 F   0  0  0  0  0  0  0  0  0  0  0  0
   -3.1350    1.4354   27.7225 F   0  0  0  0  0  0  0  0  0  0  0  0
  2  3  1  0
  7  8  1  0
  5  9  1  0
  5 16  1  0
  8 17  1  0
  8 18  1  0
  8 19  1  0
  5  4  1  0
  3  6  2  0
  6  7  1  0
  7 10  2  0
 10 11  1  0
 11 12  2  0
 12  3  1  0
  1  2  2  0
  2 13  1  0
 13 14  2  0
 14 15  1  0
 15  4  2  0
  4  1  1  0
M  END
$$$$
