No_4892-complexes_sdf/6BKW-FPZ/2024-09-17-14-21-01/
     RDKit          3D

 16 18  0  0  0  0  0  0  0  0999 V2000
   -7.9040    3.9820   27.1177 C   0  0  0  0  0  0  0  0  0  0  0  0
   -9.0711    4.3164   27.0630 C   0  0  0  0  0  0  0  0  0  0  0  0
   -9.8698    3.9665   25.9494 C   0  0  0  0  0  0  0  0  0  0  0  0
   -7.0332    4.5030   28.2025 C   0  0  0  0  0  0  0  0  0  0  0  0
   -9.4357    2.9501   25.1393 C   0  0  0  0  0  0  0  0  0  0  0  0
   -8.2567    2.3218   25.4797 C   0  0  0  0  0  0  0  0  0  0  0  0
   -7.5105    2.7966   26.5752 C   0  0  0  0  0  0  0  0  0  0  0  0
  -10.2472    2.5204   24.0264 C   0  0  0  0  0  0  0  0  0  0  0  0
  -11.4891    2.6395   24.0266 C   0  0  0  0  0  0  0  0  0  0  0  0
   -9.6065    1.9576   22.8718 C   0  0  0  0  0  0  0  0  0  0  0  0
   -7.3677    5.7763   28.7937 C   0  0  0  0  0  0  0  0  0  0  0  0
  -12.3297    2.3228   22.9867 C   0  0  0  0  0  0  0  0  0  0  0  0
  -10.3278    1.5684   21.7694 C   0  0  0  0  0  0  0  0  0  0  0  0
  -11.7068    1.7681   21.8288 C   0  0  0  0  0  0  0  0  0  0  0  0
   -8.1429    6.4887   27.8735 C   0  0  0  0  0  0  0  0  0  0  0  0
   -9.2843    5.8782   27.2180 C   0  0  0  0  0  0  0  0  0  0  0  0
  5  8  1  0
  8  9  2  0
  9 12  1  0
 12 14  2  0
 14 13  1  0
 13 10  2  0
 10  8  1  0
  2 16  1  0
 16 15  2  0
 15 11  1  0
 11  4  2  0
  4  1  1  0
  1  2  1  0
  2  3  2  0
  3  5  1  0
  5  6  2  0
  6  7  1  0
  7  1  2  0
M  END
$$$$
