No_4327-complexes_sdf/6BKW-FPZ/2024-09-17-14-21-01/
     RDKit          3D

 21 24  0  0  0  0  0  0  0  0999 V2000
   -7.2496    3.8871   27.4508 C   0  0  0  0  0  0  0  0  0  0  0  0
   -7.9379    4.9063   27.8518 C   0  0  0  0  0  0  0  0  0  0  0  0
   -8.7729    5.5444   27.0168 C   0  0  0  0  0  0  0  0  0  0  0  0
   -6.2858    3.2138   28.3467 C   0  0  0  0  0  0  0  0  0  0  0  0
   -9.2459    4.9714   25.8185 C   0  0  0  0  0  0  0  0  0  0  0  0
   -8.7245    3.6550   25.5132 C   0  0  0  0  0  0  0  0  0  0  0  0
   -9.3037    2.9665   24.5484 C   0  0  0  0  0  0  0  0  0  0  0  0
   -7.8228    3.1447   26.3850 C   0  0  0  0  0  0  0  0  0  0  0  0
   -5.6635    1.9734   27.9657 C   0  0  0  0  0  0  0  0  0  0  0  0
  -10.3848    3.3646   23.7184 C   0  0  0  0  0  0  0  0  0  0  0  0
   -4.5361    1.5339   28.6833 C   0  0  0  0  0  0  0  0  0  0  0  0
   -3.8829    0.4147   28.2049 C   0  0  0  0  0  0  0  0  0  0  0  0
   -2.8441   -0.1894   28.9194 C   0  0  0  0  0  0  0  0  0  0  0  0
  -11.1810    2.7847   23.2859 C   0  0  0  0  0  0  0  0  0  0  0  0
   -8.9683    1.5781   24.3356 C   0  0  0  0  0  0  0  0  0  0  0  0
   -9.7325    0.7833   23.5083 C   0  0  0  0  0  0  0  0  0  0  0  0
  -10.8651    1.3861   22.8848 C   0  0  0  0  0  0  0  0  0  0  0  0
   -4.9614   -0.4763   27.6653 C   0  0  0  0  0  0  0  0  0  0  0  0
   -5.9983   -0.0916   26.9136 C   0  0  0  0  0  0  0  0  0  0  0  0
   -6.4239    1.1438   27.1569 C   0  0  0  0  0  0  0  0  0  0  0  0
   -7.3820    1.7353   26.2263 C   0  0  0  0  0  0  0  0  0  0  0  0
  6  7  1  0
 12 13  1  0
  1  2  2  0
  2  3  1  0
  3  5  2  0
  5  6  1  0
  6  8  2  0
  7 10  2  0
 10 14  1  0
 14 17  2  0
 17 16  1  0
 16 15  2  0
 15  7  1  0
  9 11  1  0
 11 12  2  0
 12 18  1  0
 18 19  2  0
 19 20  1  0
  1  4  1  0
  4  9  2  0
  9 20  1  0
 20 21  2  0
 21  8  1  0
  8  1  1  0
M  END
$$$$
