No_4036-complexes_sdf/6BKW-FPZ/2024-09-17-14-21-01/
     RDKit          3D

 22 23  0  0  0  0  0  0  0  0999 V2000
   -7.2496    3.8871   27.4508 C   0  0  0  0  0  0  0  0  0  0  0  0
   -7.9379    4.9063   27.8518 C   0  0  0  0  0  0  0  0  0  0  0  0
   -9.3376    4.8647   27.7795 C   0  0  0  0  0  0  0  0  0  0  0  0
   -7.8544    2.6294   27.0414 C   0  0  0  0  0  0  0  0  0  0  0  0
   -9.2665    2.6175   27.0340 C   0  0  0  0  0  0  0  0  0  0  0  0
   -9.9836    3.7042   27.4150 C   0  0  0  0  0  0  0  0  0  0  0  0
   -9.9053    1.3367   26.6546 C   0  0  0  0  0  0  0  0  0  0  0  0
  -10.8602    1.3508   25.9026 C   0  0  0  0  0  0  0  0  0  0  0  0
  -11.3322    2.2543   25.2929 C   0  0  0  0  0  0  0  0  0  0  0  0
  -12.3567    2.1413   24.3498 C   0  0  0  0  0  0  0  0  0  0  0  0
  -12.8123    3.3112   23.5494 C   0  0  0  0  0  0  0  0  0  0  0  0
  -12.0778    4.5309   23.6906 C   0  0  0  0  0  0  0  0  0  0  0  0
  -10.9886    4.6436   24.4805 C   0  0  0  0  0  0  0  0  0  0  0  0
  -10.6118    3.6325   25.2044 C   0  0  0  0  0  0  0  0  0  0  0  0
  -11.1135    3.3672   28.0843 N   0  0  0  0  0  0  0  0  0  0  0  0
  -11.4560    2.6092   29.1708 C   0  0  0  0  0  0  0  0  0  0  0  0
  -12.3354    4.0963   27.5602 C   0  0  0  0  0  0  0  0  0  0  0  0
  -12.6841    5.1037   28.2903 C   0  0  0  0  0  0  0  0  0  0  0  0
   -7.2909    6.1062   28.2061 N   0  0  0  0  0  0  0  0  0  0  0  0
   -9.2582    0.1095   27.2957 C   0  0  0  0  0  0  0  0  0  0  0  0
   -7.9785   -0.2620   27.1134 C   0  0  0  0  0  0  0  0  0  0  0  0
   -7.5637   -1.2634   27.3938 C   0  0  0  0  0  0  0  0  0  0  0  0
  5  7  1  0
  7  8  1  0
  6 15  1  0
 15 16  1  0
 15 17  1  0
 17 18  1  0
  2 19  1  0
  7 20  1  0
 20 21  2  3
 21 22  1  0
  8  9  1  0
  1  2  2  0
  2  3  1  0
  3  6  2  0
  6  5  1  0
  5  4  2  0
  4  1  1  0
  9 10  2  0
 10 11  1  0
 11 12  2  0
 12 13  1  0
 13 14  2  0
 14  9  1  0
M  END
$$$$
