No_482-complexes_sdf/6BKW-FPZ/2024-09-17-14-21-01/
     RDKit          3D

 35 38  0  0  0  0  0  0  0  0999 V2000
   -7.9040    3.9820   27.1177 C   0  0  0  0  0  0  0  0  0  0  0  0
   -9.0711    4.3164   27.0630 C   0  0  0  0  0  0  0  0  0  0  0  0
   -9.5182    5.5541   27.5777 C   0  0  0  0  0  0  0  0  0  0  0  0
   -6.9424    4.7983   27.8424 C   0  0  0  0  0  0  0  0  0  0  0  0
   -7.3526    5.9739   28.3909 C   0  0  0  0  0  0  0  0  0  0  0  0
   -8.6479    6.3742   28.2170 C   0  0  0  0  0  0  0  0  0  0  0  0
  -10.0621    3.4422   26.3345 C   0  0  0  0  0  0  0  0  0  0  0  0
   -9.6335    2.6185   25.4370 C   0  0  0  0  0  0  0  0  0  0  0  0
  -10.4839    1.8300   24.6020 C   0  0  0  0  0  0  0  0  0  0  0  0
  -11.8333    2.0895   24.6570 C   0  0  0  0  0  0  0  0  0  0  0  0
  -11.4620    3.7184   26.2542 C   0  0  0  0  0  0  0  0  0  0  0  0
  -12.3183    3.0606   25.5409 C   0  0  0  0  0  0  0  0  0  0  0  0
   -9.9306    0.8050   23.6976 C   0  0  0  0  0  0  0  0  0  0  0  0
   -9.7562    1.1129   22.4403 C   0  0  0  0  0  0  0  0  0  0  0  0
  -10.1369    2.4028   21.9021 C   0  0  0  0  0  0  0  0  0  0  0  0
  -10.5345    2.9227   21.0790 C   0  0  0  0  0  0  0  0  0  0  0  0
  -11.0812    3.8872   20.2157 C   0  0  0  0  0  0  0  0  0  0  0  0
   -9.3740   -0.3169   24.3513 C   0  0  0  0  0  0  0  0  0  0  0  0
   -9.2144   -0.5360   25.5309 C   0  0  0  0  0  0  0  0  0  0  0  0
   -8.6868   -1.7528   26.1163 C   0  0  0  0  0  0  0  0  0  0  0  0
   -8.3164   -2.7143   25.2464 C   0  0  0  0  0  0  0  0  0  0  0  0
   -8.7030   -1.2217   23.3790 C   0  0  0  0  0  0  0  0  0  0  0  0
   -8.2689   -2.4918   23.9010 C   0  0  0  0  0  0  0  0  0  0  0  0
  -13.7464    3.3522   25.6227 C   0  0  0  0  0  0  0  0  0  0  0  0
  -14.4160    3.8226   24.6024 C   0  0  0  0  0  0  0  0  0  0  0  0
  -15.7358    4.1228   24.5936 C   0  0  0  0  0  0  0  0  0  0  0  0
  -14.4003    3.2313   26.8592 C   0  0  0  0  0  0  0  0  0  0  0  0
  -15.7682    3.5786   26.9703 C   0  0  0  0  0  0  0  0  0  0  0  0
  -16.4173    4.0674   25.8392 C   0  0  0  0  0  0  0  0  0  0  0  0
  -17.7499    4.3986   25.8768 O   0  0  0  0  0  0  0  0  0  0  0  0
  -18.4804    4.5883   25.1279 C   0  0  0  0  0  0  0  0  0  0  0  0
  -19.7538    4.1561   25.2072 C   0  0  0  0  0  0  0  0  0  0  0  0
  -20.1760    3.6345   26.3841 C   0  0  0  0  0  0  0  0  0  0  0  0
  -19.8308    4.2176   27.4974 C   0  0  0  0  0  0  0  0  0  0  0  0
  -18.5164    4.5510   27.8861 C   0  0  0  0  0  0  0  0  0  0  0  0
  2  7  1  0
  9 13  1  0
 13 14  2  3
 14 15  1  0
 15 16  3  0
 16 17  1  0
 13 18  1  0
 12 24  1  0
 29 30  1  0
 30 31  1  0
 31 32  2  3
 32 33  1  0
 33 34  1  0
 34 35  1  0
  7  8  2  0
  8  9  1  0
  9 10  2  0
 10 12  1  0
 12 11  2  0
 11  7  1  0
 18 19  2  0
 19 20  1  0
 20 21  2  0
 21 23  1  0
 23 22  2  0
 22 18  1  0
  1  2  2  0
  2  3  1  0
  3  6  2  0
  6  5  1  0
  5  4  2  0
  4  1  1  0
 24 25  2  0
 25 26  1  0
 26 29  2  0
 29 28  1  0
 28 27  2  0
 27 24  1  0
M  END
$$$$
