No_4449-complexes_sdf/6BKW-FPZ/2024-09-17-14-21-01/
     RDKit          3D

 33 38  0  0  0  0  0  0  0  0999 V2000
   -7.9040    3.9820   27.1177 C   0  0  0  0  0  0  0  0  0  0  0  0
   -8.2057    2.8231   26.8733 C   0  0  0  0  0  0  0  0  0  0  0  0
   -7.4766    1.7477   27.4593 C   0  0  0  0  0  0  0  0  0  0  0  0
   -8.7468    5.1251   26.6967 C   0  0  0  0  0  0  0  0  0  0  0  0
   -9.7234    4.8589   25.8202 C   0  0  0  0  0  0  0  0  0  0  0  0
   -9.9711    3.5858   25.4266 C   0  0  0  0  0  0  0  0  0  0  0  0
   -9.2266    2.4957   25.9600 C   0  0  0  0  0  0  0  0  0  0  0  0
   -6.1241    1.9216   27.8574 C   0  0  0  0  0  0  0  0  0  0  0  0
   -5.3476    0.8215   28.3513 C   0  0  0  0  0  0  0  0  0  0  0  0
   -5.8615   -0.4216   28.3746 C   0  0  0  0  0  0  0  0  0  0  0  0
   -7.6473    0.3265   27.3131 C   0  0  0  0  0  0  0  0  0  0  0  0
   -7.0880   -0.6356   27.8793 C   0  0  0  0  0  0  0  0  0  0  0  0
   -8.4153    6.5094   27.1076 C   0  0  0  0  0  0  0  0  0  0  0  0
   -7.9371    7.5913   27.0975 N   0  0  0  0  0  0  0  0  0  0  0  0
   -5.0249   -1.4913   29.0009 C   0  0  0  0  0  0  0  0  0  0  0  0
   -5.2650   -2.2701   29.7036 C   0  0  0  0  0  0  0  0  0  0  0  0
   -4.3540   -3.2677   30.3401 C   0  0  0  0  0  0  0  0  0  0  0  0
   -3.0079   -3.1188   29.9851 C   0  0  0  0  0  0  0  0  0  0  0  0
   -3.5073   -1.2492   28.7357 C   0  0  0  0  0  0  0  0  0  0  0  0
   -2.5971   -2.0895   29.2069 C   0  0  0  0  0  0  0  0  0  0  0  0
  -11.0057    3.3099   24.4376 C   0  0  0  0  0  0  0  0  0  0  0  0
  -10.9345    3.8389   23.1973 C   0  0  0  0  0  0  0  0  0  0  0  0
  -11.8672    3.6072   22.1600 C   0  0  0  0  0  0  0  0  0  0  0  0
  -12.8972    2.7167   22.4182 C   0  0  0  0  0  0  0  0  0  0  0  0
  -11.9451    2.3350   24.4693 C   0  0  0  0  0  0  0  0  0  0  0  0
  -12.8778    2.0694   23.5856 C   0  0  0  0  0  0  0  0  0  0  0  0
   -1.1764   -1.8490   28.8579 C   0  0  0  0  0  0  0  0  0  0  0  0
   -0.9026   -0.8878   27.9033 C   0  0  0  0  0  0  0  0  0  0  0  0
   -1.9084    0.0163   27.5358 C   0  0  0  0  0  0  0  0  0  0  0  0
   -3.1793   -0.1430   27.8476 C   0  0  2  0  0  0  0  0  0  0  0  0
   -4.1518    0.9217   27.5478 C   0  0  0  0  0  0  0  0  0  0  0  0
   -1.5372    1.0387   26.6874 O   0  0  0  0  0  0  0  0  0  0  0  0
   -6.9634   -2.6256   30.1516 Cl  0  0  0  0  0  0  0  0  0  0  0  0
  2  3  1  0
  4 13  1  0
 13 14  3  0
 10 15  1  0
  6 21  1  0
 20 27  1  0
 28 29  1  0
 19 30  1  0
 29 30  1  0
  9 31  1  0
 30 31  1  1
 29 32  2  0
 16 33  1  0
 28 27  1  0
 21 22  2  0
 22 23  1  0
 23 24  2  0
 24 26  1  0
 26 25  2  0
 25 21  1  0
  1  2  2  0
  2  7  1  0
  7  6  2  0
  6  5  1  0
  5  4  2  0
  4  1  1  0
  3  8  2  0
  8  9  1  0
  9 10  2  0
 10 12  1  0
 12 11  2  0
 11  3  1  0
 15 16  2  0
 16 17  1  0
 17 18  2  0
 18 20  1  0
 20 19  2  0
 19 15  1  0
M  END
$$$$
