No_4032-complexes_sdf/6BKW-FPZ/2024-09-17-14-21-01/
     RDKit          3D

 21 23  0  0  0  0  0  0  0  0999 V2000
   -7.2496    3.8871   27.4508 C   0  0  0  0  0  0  0  0  0  0  0  0
   -8.5096    4.0291   27.2770 C   0  0  0  0  0  0  0  0  0  0  0  0
   -9.3502    2.8685   26.8763 C   0  0  0  0  0  0  0  0  0  0  0  0
   -6.4573    5.0084   27.9854 C   0  0  0  0  0  0  0  0  0  0  0  0
   -9.1243    5.2674   27.5163 C   0  0  0  0  0  0  0  0  0  0  0  0
   -8.4032    6.3854   27.8703 C   0  0  0  0  0  0  0  0  0  0  0  0
   -7.0896    6.2292   28.0937 C   0  0  0  0  0  0  0  0  0  0  0  0
   -9.6875    2.5568   25.9007 C   0  0  0  0  0  0  0  0  0  0  0  0
  -10.2788    1.3258   25.4903 C   0  0  0  0  0  0  0  0  0  0  0  0
  -10.5689    0.4721   26.5483 C   0  0  0  0  0  0  0  0  0  0  0  0
  -10.2114    0.7682   27.8315 C   0  0  0  0  0  0  0  0  0  0  0  0
   -9.5452    1.9645   28.1067 C   0  0  0  0  0  0  0  0  0  0  0  0
  -10.6573    0.9660   24.1109 C   0  0  0  0  0  0  0  0  0  0  0  0
  -10.1845    1.4666   23.2415 C   0  0  0  0  0  0  0  0  0  0  0  0
  -10.2956    1.6511   21.9907 C   0  0  0  0  0  0  0  0  0  0  0  0
   -9.5140    2.4342   21.0494 C   0  0  0  0  0  0  0  0  0  0  0  0
  -11.3288    0.8336   21.2834 C   0  0  0  0  0  0  0  0  0  0  0  0
  -12.2208    1.2123   20.9091 C   0  0  0  0  0  0  0  0  0  0  0  0
   -8.7699    3.4141   21.7341 C   0  0  0  0  0  0  0  0  0  0  0  0
   -8.9303    3.6707   23.1173 C   0  0  0  0  0  0  0  0  0  0  0  0
   -9.5019    2.8691   23.8605 C   0  0  0  0  0  0  0  0  0  0  0  0
  2  3  1  0
  9 13  1  0
 15 17  1  0
 17 18  2  0
 13 14  1  0
  3  8  2  0
  8  9  1  0
  9 10  2  0
 10 11  1  0
 11 12  2  0
 12  3  1  0
 14 15  2  0
 15 16  1  0
 16 19  2  0
 19 20  1  0
 20 21  2  0
 21 14  1  0
  1  2  2  0
  2  5  1  0
  5  6  2  0
  6  7  1  0
  7  4  2  0
  4  1  1  0
M  END
$$$$
