No_4981-complexes_sdf/6BKW-FPZ/2024-09-17-14-21-01/
     RDKit          3D

 22 23  0  0  0  0  0  0  0  0999 V2000
   -7.7129    4.2099   27.0854 C   0  0  0  0  0  0  0  0  0  0  0  0
   -8.9133    4.4736   27.0998 C   0  0  0  0  0  0  0  0  0  0  0  0
   -9.7135    3.9633   26.0300 C   0  0  0  0  0  0  0  0  0  0  0  0
   -6.8420    4.9760   28.0851 C   0  0  0  0  0  0  0  0  0  0  0  0
  -10.9164    3.4776   26.1172 C   0  0  0  0  0  0  0  0  0  0  0  0
  -11.5452    3.0000   24.9937 C   0  0  0  0  0  0  0  0  0  0  0  0
  -11.0094    3.2254   23.8096 C   0  0  0  0  0  0  0  0  0  0  0  0
   -9.8357    3.9328   23.5943 C   0  0  0  0  0  0  0  0  0  0  0  0
   -9.1696    4.3638   24.7153 C   0  0  0  0  0  0  0  0  0  0  0  0
   -9.5562    5.1768   28.1530 C   0  0  0  0  0  0  0  0  0  0  0  0
   -8.0380    3.9613   27.5191 Br  0  0  0  0  0  0  0  0  0  0  0  0
   -7.3674    5.9091   29.0533 C   0  0  0  0  0  0  0  0  0  0  0  0
   -8.7317    6.1105   29.0250 C   0  0  0  0  0  0  0  0  0  0  0  0
   -9.1539    6.8999   28.5001 C   0  0  2  0  0  0  0  0  0  0  0  0
   -9.7369    7.4479   27.2884 C   0  0  0  0  0  0  0  0  0  0  0  0
   -8.8106    8.0346   28.5878 O   0  0  0  0  0  0  0  0  0  0  0  0
   -8.3411    9.1835   27.9929 C   0  0  0  0  0  0  0  0  0  0  0  0
   -9.3417    8.5447   26.4848 C   0  0  0  0  0  0  0  0  0  0  0  0
   -7.0600    9.1262   27.4418 O   0  0  0  0  0  0  0  0  0  0  0  0
   -8.6822   10.2891   27.9772 O   0  0  0  0  0  0  0  0  0  0  0  0
   -8.2167    8.0479   25.7524 O   0  0  0  0  0  0  0  0  0  0  0  0
   -9.9883    9.3314   26.1296 O   0  0  0  0  0  0  0  0  0  0  0  0
  2  3  1  0
  1 11  1  0
 13 14  1  0
 14 15  1  6
 14 16  1  0
 16 17  1  0
 15 18  1  0
 17 19  1  0
 17 20  1  0
 18 21  1  0
 18 22  1  0
  3  5  2  0
  5  6  1  0
  6  7  2  0
  7  8  1  0
  8  9  2  0
  9  3  1  0
  1  2  2  0
  2 10  1  0
 10 13  2  0
 13 12  1  0
 12  4  2  0
  4  1  1  0
M  END
$$$$
