No_4111-complexes_sdf/6BKW-FPZ/2024-09-17-14-21-01/
     RDKit          3D

 13 13  0  0  0  0  0  0  0  0999 V2000
   -7.9040    3.9820   27.1177 C   0  0  0  0  0  0  0  0  0  0  0  0
   -7.8663    4.8694   27.9238 C   0  0  0  0  0  0  0  0  0  0  0  0
   -9.0953    3.1697   27.0532 C   0  0  0  0  0  0  0  0  0  0  0  0
  -10.1313    3.4052   27.8871 C   0  0  0  0  0  0  0  0  0  0  0  0
   -8.9489    5.3814   28.6671 C   0  0  0  0  0  0  0  0  0  0  0  0
  -10.1039    4.5714   28.7102 C   0  0  0  0  0  0  0  0  0  0  0  0
   -9.0441    1.9400   26.2104 C   0  0  0  0  0  0  0  0  0  0  0  0
   -8.4388    0.7762   26.4940 C   0  0  0  0  0  0  0  0  0  0  0  0
   -7.8098    0.5901   27.7245 C   0  0  0  0  0  0  0  0  0  0  0  0
   -7.1164   -0.6149   28.0414 C   0  0  0  0  0  0  0  0  0  0  0  0
   -6.3974   -0.7650   29.2031 C   0  0  0  0  0  0  0  0  0  0  0  0
   -8.3517   -0.2031   25.4900 C   0  0  0  0  0  0  0  0  0  0  0  0
   -7.6827   -1.4191   25.7802 C   0  0  0  0  0  0  0  0  0  0  0  0
  3  7  1  0
  7  8  1  0
  8  9  2  3
  9 10  1  0
 10 11  2  0
  8 12  1  0
 12 13  2  0
  1  2  2  0
  2  5  1  0
  5  6  2  0
  6  4  1  0
  4  3  2  0
  3  1  1  0
M  END
$$$$
