No_4124-complexes_sdf/6BKW-FPZ/2024-09-17-14-21-01/
     RDKit          3D

 28 30  0  0  0  0  0  0  0  0999 V2000
   -7.7129    4.2099   27.0854 C   0  0  0  0  0  0  0  0  0  0  0  0
   -7.7814    5.1722   27.8972 C   0  0  0  0  0  0  0  0  0  0  0  0
   -8.8998    3.8713   26.3707 C   0  0  0  0  0  0  0  0  0  0  0  0
   -8.9563    2.6796   25.5490 C   0  0  0  0  0  0  0  0  0  0  0  0
   -8.8131    6.0996   27.7331 C   0  0  0  0  0  0  0  0  0  0  0  0
   -9.8942    4.7752   26.3268 C   0  0  0  0  0  0  0  0  0  0  0  0
   -9.8180    5.9214   27.0054 C   0  0  0  0  0  0  0  0  0  0  0  0
   -9.8599    2.4752   24.5576 C   0  0  0  0  0  0  0  0  0  0  0  0
   -9.9183    1.3095   23.8511 C   0  0  0  0  0  0  0  0  0  0  0  0
   -8.9349    0.2906   24.1170 C   0  0  0  0  0  0  0  0  0  0  0  0
   -8.0461    0.4434   25.1362 C   0  0  0  0  0  0  0  0  0  0  0  0
   -8.0065    1.5993   25.8930 C   0  0  0  0  0  0  0  0  0  0  0  0
   -6.7243    5.5379   28.6471 F   0  0  0  0  0  0  0  0  0  0  0  0
   -7.0920   -0.6257   25.4403 C   0  0  0  0  0  0  0  0  0  0  0  0
   -6.2428   -0.4352   26.2264 O   0  0  0  0  0  0  0  0  0  0  0  0
   -7.0392   -1.7063   24.6181 N   0  0  0  0  0  0  0  0  0  0  0  0
   -7.8682   -2.0630   23.6131 C   0  0  0  0  0  0  0  0  0  0  0  0
   -8.9003   -0.9465   23.3195 C   0  0  0  0  0  0  0  0  0  0  0  0
   -5.9917   -2.7577   24.9345 C   0  0  0  0  0  0  0  0  0  0  0  0
  -10.8168    1.2480   22.7314 C   0  0  0  0  0  0  0  0  0  0  0  0
  -11.7789    0.8983   22.6775 O   0  0  0  0  0  0  0  0  0  0  0  0
  -10.1696    1.6979   21.4938 N   0  0  0  0  0  0  0  0  0  0  0  0
  -10.8174    1.7194   20.2346 C   0  0  0  0  0  0  0  0  0  0  0  0
   -6.3756   -3.7833   25.7326 C   0  0  0  0  0  0  0  0  0  0  0  0
   -7.2854   -3.8225   26.3817 C   0  0  0  0  0  0  0  0  0  0  0  0
   -7.6533   -2.9022   27.2671 C   0  0  0  0  0  0  0  0  0  0  0  0
   -6.6641   -2.2617   28.1128 C   0  0  0  0  0  0  0  0  0  0  0  0
   -7.0450   -1.4499   29.2289 C   0  0  0  0  0  0  0  0  0  0  0  0
  3  4  1  0
  2 13  1  0
 11 14  1  0
 14 15  2  0
 14 16  1  0
 16 17  1  0
 10 18  1  0
 17 18  1  0
 16 19  1  0
  9 20  1  0
 20 21  2  0
 20 22  1  0
 22 23  1  0
 19 24  1  0
 24 25  1  0
 25 26  2  3
 26 27  1  0
 27 28  2  0
  4  8  2  0
  8  9  1  0
  9 10  2  0
 10 11  1  0
 11 12  2  0
 12  4  1  0
  1  2  2  0
  2  5  1  0
  5  7  2  0
  7  6  1  0
  6  3  2  0
  3  1  1  0
M  END
$$$$
