No_4393-complexes_sdf/6BKW-FPZ/2024-09-17-14-21-01/
     RDKit          3D

 13 15  0  0  0  0  0  0  0  0999 V2000
   -7.7129    4.2099   27.0854 C   0  0  2  0  0  0  0  0  0  0  0  0
   -7.7814    5.1722   27.8972 C   0  0  0  0  0  0  0  0  0  0  0  0
   -8.8998    3.8713   26.3707 C   0  0  2  0  0  0  0  0  0  0  0  0
   -9.1401    2.5906   25.9433 C   0  0  0  0  0  0  0  0  0  0  0  0
   -8.7502    6.2483   27.7275 C   0  0  0  0  0  0  0  0  0  0  0  0
  -10.0339    2.3357   24.9097 C   0  0  0  0  0  0  0  0  0  0  0  0
  -10.7478    3.4936   24.4302 C   0  0  0  0  0  0  0  0  0  0  0  0
  -10.4101    4.7846   24.8361 C   0  0  0  0  0  0  0  0  0  0  0  0
   -9.4051    4.9704   25.7769 C   0  0  1  0  0  0  0  0  0  0  0  0
   -9.5992    6.1568   26.6221 C   0  0  0  0  0  0  0  0  0  0  0  0
   -6.9651    3.0616   27.6156 N   0  0  0  0  0  0  0  0  0  0  0  0
   -7.0627    1.7827   27.2068 C   0  0  0  0  0  0  0  0  0  0  0  0
   -8.1458    1.5194   26.3070 C   0  0  0  0  0  0  0  0  0  0  0  0
  1  2  1  1
  1  3  1  0
  3  4  1  6
  2  5  2  0
  4  6  2  0
  6  7  1  0
  7  8  2  0
  3  9  1  0
  8  9  1  0
  5 10  1  0
  9 10  1  1
  1 11  1  0
 11 12  2  0
  4 13  1  0
 12 13  1  0
M  END
$$$$
