No_4408-complexes_sdf/6BKW-FPZ/2024-09-17-14-21-01/
     RDKit          3D

 23 24  0  0  0  0  0  0  0  0999 V2000
   -7.7129    4.2099   27.0854 C   0  0  0  0  0  0  0  0  0  0  0  0
   -8.2112    3.0637   26.9225 C   0  0  0  0  0  0  0  0  0  0  0  0
   -8.5108    5.3904   26.9436 C   0  0  0  0  0  0  0  0  0  0  0  0
   -9.7256    5.1955   26.3518 C   0  0  0  0  0  0  0  0  0  0  0  0
   -9.4995    2.8258   26.4878 C   0  0  0  0  0  0  0  0  0  0  0  0
  -10.2542    3.9691   26.2055 C   0  0  0  0  0  0  0  0  0  0  0  0
   -7.9168    6.7086   27.1908 C   0  0  0  0  0  0  0  0  0  0  0  0
   -7.3556    1.8215   27.2519 C   0  0  0  0  0  0  0  0  0  0  0  0
   -7.7950    0.7874   27.3712 F   0  0  0  0  0  0  0  0  0  0  0  0
   -6.0881    2.0494   27.4752 F   0  0  0  0  0  0  0  0  0  0  0  0
   -6.8922    6.7915   27.8752 O   0  0  0  0  0  0  0  0  0  0  0  0
   -8.5717    7.8291   26.9094 O   0  0  0  0  0  0  0  0  0  0  0  0
  -11.5841    3.7869   25.6067 C   0  0  2  0  0  0  0  0  0  0  0  0
  -11.7242    3.8058   24.2538 C   0  0  0  0  0  0  0  0  0  0  0  0
  -10.6335    3.7394   23.3896 C   0  0  0  0  0  0  0  0  0  0  0  0
  -10.7223    3.7643   21.9896 C   0  0  0  0  0  0  0  0  0  0  0  0
  -11.9463    3.8059   21.3734 C   0  0  0  0  0  0  0  0  0  0  0  0
  -12.9363    3.8327   23.5634 C   0  0  0  0  0  0  0  0  0  0  0  0
  -13.0692    3.8959   22.1780 C   0  0  0  0  0  0  0  0  0  0  0  0
  -12.7170    3.7236   26.5158 C   0  0  0  0  0  0  0  0  0  0  0  0
  -12.9208    4.3960   27.4756 C   0  0  0  0  0  0  0  0  0  0  0  0
  -14.0241    4.2871   28.4219 C   0  0  0  0  0  0  0  0  0  0  0  0
  -14.9198    3.3317   28.1802 C   0  0  0  0  0  0  0  0  0  0  0  0
  3  7  1  0
  2  8  1  0
  8  9  1  0
  8 10  1  0
  7 11  2  0
  7 12  1  0
 13  6  1  1
 13 14  1  0
 13 20  1  0
 20 21  2  3
 21 22  1  0
 22 23  2  0
 14 15  2  0
 15 16  1  0
 16 17  2  0
 17 19  1  0
 19 18  2  0
 18 14  1  0
  1  2  2  0
  2  5  1  0
  5  6  2  0
  6  4  1  0
  4  3  2  0
  3  1  1  0
M  END
$$$$
