No_4292-complexes_sdf/6BKW-FPZ/2024-09-17-14-21-01/
     RDKit          3D

 27 29  0  0  0  0  0  0  0  0999 V2000
   -7.9040    3.9820   27.1177 C   0  0  0  0  0  0  0  0  0  0  0  0
   -9.0711    4.3164   27.0630 C   0  0  0  0  0  0  0  0  0  0  0  0
   -9.8698    3.9665   25.9494 C   0  0  0  0  0  0  0  0  0  0  0  0
   -7.0332    4.5030   28.2025 C   0  0  0  0  0  0  0  0  0  0  0  0
   -9.4357    2.9501   25.1393 C   0  0  0  0  0  0  0  0  0  0  0  0
   -8.2567    2.3218   25.4797 C   0  0  0  0  0  0  0  0  0  0  0  0
   -7.5105    2.7966   26.5752 C   0  0  0  0  0  0  0  0  0  0  0  0
  -10.2472    2.5204   24.0264 C   0  0  1  0  0  0  0  0  0  0  0  0
  -10.5542    3.3859   23.0454 N   0  0  0  0  0  0  0  0  0  0  0  0
  -10.4692    4.6982   23.3002 C   0  0  0  0  0  0  0  0  0  0  0  0
  -11.6408    3.0112   22.1855 C   0  0  0  0  0  0  0  0  0  0  0  0
   -7.4021    5.7702   28.7966 C   0  0  0  0  0  0  0  0  0  0  0  0
  -10.1981    1.1564   23.6407 C   0  0  0  0  0  0  0  0  0  0  0  0
   -8.6201    6.3319   28.1611 C   0  0  0  0  0  0  0  0  0  0  0  0
   -9.4810    5.6425   27.3415 C   0  0  0  0  0  0  0  0  0  0  0  0
  -10.0865    0.2011   24.3652 C   0  0  0  0  0  0  0  0  0  0  0  0
  -10.3769    0.2902   25.7484 C   0  0  0  0  0  0  0  0  0  0  0  0
  -10.1077   -0.8808   26.5732 C   0  0  0  0  0  0  0  0  0  0  0  0
  -10.9095   -1.0198   27.7114 C   0  0  0  0  0  0  0  0  0  0  0  0
  -11.7508   -0.3105   28.0007 C   0  0  0  0  0  0  0  0  0  0  0  0
  -12.0387    0.9457   27.3737 C   0  0  0  0  0  0  0  0  0  0  0  0
  -11.4617    1.1192   26.1731 C   0  0  0  0  0  0  0  0  0  0  0  0
  -13.1306    1.8069   27.9494 C   0  0  0  0  0  0  0  0  0  0  0  0
  -12.8908    3.1490   27.7804 C   0  0  0  0  0  0  0  0  0  0  0  0
  -12.0669    3.8080   28.5533 C   0  0  0  0  0  0  0  0  0  0  0  0
  -13.6105    3.8554   26.7669 C   0  0  0  0  0  0  0  0  0  0  0  0
  -14.4227    4.9131   27.0804 C   0  0  0  0  0  0  0  0  0  0  0  0
  5  8  1  0
  8  9  1  6
  9 10  1  0
  9 11  1  0
  8 13  1  0
 13 16  2  3
 16 17  1  0
 21 23  1  0
 23 24  1  0
 24 25  1  0
 24 26  1  0
 26 27  1  0
 17 18  2  0
 18 19  1  0
 19 20  2  0
 20 21  1  0
 21 22  2  0
 22 17  1  0
  2 15  1  0
 15 14  2  0
 14 12  1  0
 12  4  2  0
  4  1  1  0
  1  2  1  0
  2  3  2  0
  3  5  1  0
  5  6  2  0
  6  7  1  0
  7  1  2  0
M  END
$$$$
