No_4842-complexes_sdf/6BKW-FPZ/2024-09-17-14-21-01/
     RDKit          3D

 21 22  0  0  0  0  0  0  0  0999 V2000
   -7.9040    3.9820   27.1177 C   0  0  0  0  0  0  0  0  0  0  0  0
   -7.8663    4.8694   27.9238 C   0  0  0  0  0  0  0  0  0  0  0  0
   -9.0501    3.8017   26.2617 C   0  0  0  0  0  0  0  0  0  0  0  0
  -10.0189    4.7608   26.3707 C   0  0  0  0  0  0  0  0  0  0  0  0
   -8.6973    5.9722   27.8968 C   0  0  0  0  0  0  0  0  0  0  0  0
   -9.8216    5.8946   27.1241 C   0  0  0  0  0  0  0  0  0  0  0  0
   -9.1437    2.6293   25.4175 C   0  0  0  0  0  0  0  0  0  0  0  0
   -9.9828    2.7153   24.2925 C   0  0  0  0  0  0  0  0  0  0  0  0
  -10.1268    1.6091   23.5189 C   0  0  0  0  0  0  0  0  0  0  0  0
   -9.3057    0.4350   23.7675 C   0  0  0  0  0  0  0  0  0  0  0  0
   -8.4257    1.4363   25.5742 C   0  0  0  0  0  0  0  0  0  0  0  0
   -8.4905    0.4049   24.8177 C   0  0  0  0  0  0  0  0  0  0  0  0
   -7.7523   -0.7018   25.0408 O   0  0  0  0  0  0  0  0  0  0  0  0
   -6.7312   -0.9584   24.2769 C   0  0  0  0  0  0  0  0  0  0  0  0
  -10.9722    1.6701   22.3128 C   0  0  0  0  0  0  0  0  0  0  0  0
  -12.1897    2.0272   22.4827 C   0  0  0  0  0  0  0  0  0  0  0  0
  -12.7779    2.1912   23.5467 C   0  0  0  0  0  0  0  0  0  0  0  0
  -13.7204    2.4744   23.9738 C   0  0  0  0  0  0  0  0  0  0  0  0
  -14.2210    2.6685   25.3939 C   0  0  0  0  0  0  0  0  0  0  0  0
  -13.2490    2.4039   26.3481 C   0  0  0  0  0  0  0  0  0  0  0  0
  -12.0332    1.9375   25.9893 C   0  0  0  0  0  0  0  0  0  0  0  0
  3  7  1  0
 12 13  1  0
 13 14  1  0
  9 15  1  0
 15 16  1  0
 16 17  2  3
 17 18  1  0
 18 19  2  3
 19 20  1  0
 20 21  2  0
  7  8  2  0
  8  9  1  0
  9 10  2  0
 10 12  1  0
 12 11  2  0
 11  7  1  0
  1  2  2  0
  2  5  1  0
  5  6  2  0
  6  4  1  0
  4  3  2  0
  3  1  1  0
M  END
$$$$
