No_4756-complexes_sdf/6BKW-FPZ/2024-09-17-14-21-01/
     RDKit          3D

 12 13  0  0  0  0  0  0  0  0999 V2000
   -7.7129    4.2099   27.0854 C   0  0  0  0  0  0  0  0  0  0  0  0
   -8.2112    3.0637   26.9225 C   0  0  0  0  0  0  0  0  0  0  0  0
   -9.4446    2.8304   26.1868 C   0  0  0  0  0  0  0  0  0  0  0  0
   -8.4697    5.3956   26.7238 C   0  0  0  0  0  0  0  0  0  0  0  0
   -9.6172    5.2111   25.9513 C   0  0  0  0  0  0  0  0  0  0  0  0
  -10.0424    3.9782   25.6873 C   0  0  0  0  0  0  0  0  0  0  0  0
   -7.3251    1.9116   27.4398 C   0  0  0  0  0  0  0  0  0  0  0  0
   -6.0730    2.1058   27.5931 N   0  0  0  0  0  0  0  0  0  0  0  0
   -7.8843    0.5937   27.5008 C   0  0  0  0  0  0  0  0  0  0  0  0
   -5.2657    1.0571   28.0389 C   0  0  0  0  0  0  0  0  0  0  0  0
   -5.7217   -0.2072   28.1630 C   0  0  0  0  0  0  0  0  0  0  0  0
   -7.0537   -0.4040   27.9022 C   0  0  0  0  0  0  0  0  0  0  0  0
  2  7  1  0
  1  2  2  0
  2  3  1  0
  3  6  2  0
  6  5  1  0
  5  4  2  0
  4  1  1  0
  7  8  2  0
  8 10  1  0
 10 11  2  0
 11 12  1  0
 12  9  2  0
  9  7  1  0
M  END
$$$$
