No_4910-complexes_sdf/6BKW-FPZ/2024-09-17-14-21-01/
     RDKit          3D

 25 27  0  0  0  0  0  0  0  0999 V2000
   -7.7129    4.2099   27.0854 C   0  0  0  0  0  0  0  0  0  0  0  0
   -8.2112    3.0637   26.9225 C   0  0  0  0  0  0  0  0  0  0  0  0
   -9.4446    2.8304   26.1868 C   0  0  0  0  0  0  0  0  0  0  0  0
   -8.4697    5.3956   26.7238 C   0  0  0  0  0  0  0  0  0  0  0  0
   -9.6172    5.2111   25.9513 C   0  0  0  0  0  0  0  0  0  0  0  0
  -10.0424    3.9782   25.6873 C   0  0  0  0  0  0  0  0  0  0  0  0
   -7.8256    6.9333   27.0525 Cl  0  0  0  0  0  0  0  0  0  0  0  0
   -7.4841    1.8412   27.3998 C   0  0  0  0  0  0  0  0  0  0  0  0
   -6.8432    0.9750   26.6246 C   0  0  0  0  0  0  0  0  0  0  0  0
   -6.1559   -0.1142   27.2179 C   0  0  0  0  0  0  0  0  0  0  0  0
   -5.4505    0.0464   28.3103 C   0  0  0  0  0  0  0  0  0  0  0  0
   -4.7886   -1.0762   28.9448 C   0  0  0  0  0  0  0  0  0  0  0  0
   -4.7359   -2.2243   28.2575 C   0  0  0  0  0  0  0  0  0  0  0  0
   -6.0297   -1.3895   26.6739 C   0  0  0  0  0  0  0  0  0  0  0  0
   -6.7853   -1.5174   25.3792 C   0  0  0  0  0  0  0  0  0  0  0  0
   -5.3420   -2.3913   27.1627 C   0  0  0  0  0  0  0  0  0  0  0  0
   -7.6748   -1.2360   24.7206 C   0  0  0  0  0  0  0  0  0  0  0  0
   -7.9880   -1.5600   23.3965 C   0  0  0  0  0  0  0  0  0  0  0  0
   -6.9969   -2.2612   22.6963 C   0  0  0  0  0  0  0  0  0  0  0  0
   -5.7712   -2.2332   24.3854 C   0  0  0  0  0  0  0  0  0  0  0  0
   -5.9425   -2.5644   23.1881 C   0  0  0  0  0  0  0  0  0  0  0  0
   -4.1105   -0.7605   30.3158 C   0  0  0  0  0  0  0  0  0  0  0  0
   -4.8162   -0.0304   31.0443 F   0  0  0  0  0  0  0  0  0  0  0  0
   -3.8916   -1.9586   30.9489 F   0  0  0  0  0  0  0  0  0  0  0  0
   -2.9180   -0.1850   30.0612 F   0  0  0  0  0  0  0  0  0  0  0  0
  4  7  1  0
  2  8  1  0
  8  9  2  3
  9 10  1  0
 14 15  1  0
 12 22  1  0
 22 23  1  0
 22 24  1  0
 22 25  1  0
 10 11  2  0
 11 12  1  0
 12 13  2  0
 13 16  1  0
 16 14  2  0
 14 10  1  0
 15 17  2  0
 17 18  1  0
 18 19  2  0
 19 21  1  0
 21 20  2  0
 20 15  1  0
  1  2  2  0
  2  3  1  0
  3  6  2  0
  6  5  1  0
  5  4  2  0
  4  1  1  0
M  END
$$$$
