No_4507-complexes_sdf/6BKW-FPZ/2024-09-17-14-21-01/
     RDKit          3D

 16 17  0  0  0  0  0  0  0  0999 V2000
   -7.2496    3.8871   27.4508 C   0  0  0  0  0  0  0  0  0  0  0  0
   -7.9379    4.9063   27.8518 C   0  0  0  0  0  0  0  0  0  0  0  0
   -8.7729    5.5444   27.0168 C   0  0  0  0  0  0  0  0  0  0  0  0
   -7.7708    3.0049   26.4155 C   0  0  0  0  0  0  0  0  0  0  0  0
   -9.3916    4.8208   25.9624 C   0  0  0  0  0  0  0  0  0  0  0  0
   -8.8052    3.5944   25.6431 C   0  0  0  0  0  0  0  0  0  0  0  0
   -9.3371    2.9709   24.6303 F   0  0  0  0  0  0  0  0  0  0  0  0
   -7.3992    5.6885   28.8043 F   0  0  0  0  0  0  0  0  0  0  0  0
   -9.2923    6.8201   27.2926 O   0  0  0  0  0  0  0  0  0  0  0  0
   -7.3808    1.7748   26.2006 O   0  0  0  0  0  0  0  0  0  0  0  0
   -7.1238    1.0555   27.2919 C   0  0  0  0  0  0  0  0  0  0  0  0
   -7.7147   -0.3006   27.1348 C   0  0  0  0  0  0  0  0  0  0  0  0
   -7.3361   -1.1911   28.1043 C   0  0  0  0  0  0  0  0  0  0  0  0
   -6.2024   -1.0119   28.9179 C   0  0  0  0  0  0  0  0  0  0  0  0
   -5.4715    0.2257   28.7521 C   0  0  0  0  0  0  0  0  0  0  0  0
   -5.8533    1.1437   27.8724 C   0  0  0  0  0  0  0  0  0  0  0  0
  6  7  1  0
  2  8  1  0
  3  9  1  0
  4 10  1  0
 10 11  1  0
 11 12  2  0
 12 13  1  0
 13 14  2  0
 14 15  1  0
 15 16  2  0
 16 11  1  0
  1  2  2  0
  2  3  1  0
  3  5  2  0
  5  6  1  0
  6  4  2  0
  4  1  1  0
M  END
$$$$
