No_4611-complexes_sdf/6BKW-FPZ/2024-09-17-14-21-01/
     RDKit          3D

 32 38  0  0  0  0  0  0  0  0999 V2000
   -7.9040    3.9820   27.1177 C   0  0  0  0  0  0  0  0  0  0  0  0
   -8.2057    2.8231   26.8733 C   0  0  2  0  0  0  0  0  0  0  0  0
   -7.0130    4.3706   28.1140 C   0  0  0  0  0  0  0  0  0  0  0  0
   -9.3829    2.4374   26.1668 C   0  0  1  0  0  0  0  0  0  0  0  0
  -10.0975    3.4171   25.5988 C   0  0  1  0  0  0  0  0  0  0  0  0
   -9.7335    4.7745   25.7705 C   0  0  0  0  0  0  0  0  0  0  0  0
   -8.7317    5.1107   26.5933 C   0  0  2  0  0  0  0  0  0  0  0  0
   -8.4060    6.4842   26.8915 C   0  0  0  0  0  0  0  0  0  0  0  0
   -7.5473    7.0726   27.1167 C   0  0  0  0  0  0  0  0  0  0  0  0
   -7.6438    8.5152   27.2301 C   0  0  0  0  0  0  0  0  0  0  0  0
   -8.9443    8.6664   26.8258 N   0  0  0  0  0  0  0  0  0  0  0  0
   -9.3630    7.3681   26.7678 N   0  0  0  0  0  0  0  0  0  0  0  0
   -7.4363    1.6462   27.4568 C   0  0  0  0  0  0  0  0  0  0  0  0
   -7.8798    0.3757   27.5186 C   0  0  0  0  0  0  0  0  0  0  0  0
   -9.6982    1.1007   25.8889 C   0  0  1  0  0  0  0  0  0  0  0  0
   -8.9698    0.0678   26.6155 C   0  0  1  0  0  0  0  0  0  0  0  0
  -10.7409    0.6640   25.0438 C   0  0  2  0  0  0  0  0  0  0  0  0
  -10.4426   -0.2120   24.2111 C   0  0  1  0  0  0  0  0  0  0  0  0
  -10.2683    0.0596   23.0038 C   0  0  0  0  0  0  0  0  0  0  0  0
  -10.7182    1.1449   22.3802 C   0  0  0  0  0  0  0  0  0  0  0  0
  -11.6007    1.8648   23.0615 C   0  0  0  0  0  0  0  0  0  0  0  0
  -10.9867    2.0352   24.1934 C   0  0  1  0  0  0  0  0  0  0  0  0
  -10.7894    3.1909   24.7380 N   0  0  0  0  0  0  0  0  0  0  0  0
  -12.0679    0.5043   25.8065 C   0  0  0  0  0  0  0  0  0  0  0  0
  -12.4869    1.3430   26.6438 C   0  0  0  0  0  0  0  0  0  0  0  0
  -13.6124    1.1452   27.4409 C   0  0  0  0  0  0  0  0  0  0  0  0
  -12.7713   -0.6834   25.6084 C   0  0  0  0  0  0  0  0  0  0  0  0
  -13.8937   -0.9490   26.4170 C   0  0  0  0  0  0  0  0  0  0  0  0
  -14.3157   -0.0217   27.3167 C   0  0  0  0  0  0  0  0  0  0  0  0
  -10.0549   -1.6418   24.6873 C   0  0  0  0  0  0  0  0  0  0  0  0
   -8.8740   -1.3746   25.7436 C   0  0  0  0  0  0  0  0  0  0  0  0
  -10.2101    0.1743   26.5362 Cl  0  0  0  0  0  0  0  0  0  0  0  0
  1  2  1  0
  1  3  2  0
  4  2  1  6
  4  5  1  0
  5  6  1  6
  1  7  1  0
  6  7  1  0
  7  8  1  6
  8  9  2  0
  9 10  1  0
 10 11  2  0
  8 12  1  0
 11 12  1  0
  2 13  1  1
 13 14  2  0
  4 15  1  0
 14 16  1  0
 15 16  1  1
 15 17  1  0
 17 18  1  0
 18 19  1  1
 20 21  1  0
 17 22  1  0
 22 21  1  1
  5 23  1  0
 22 23  1  0
 17 24  1  1
 18 30  1  0
 16 31  1  0
 16 32  1  1
 31 30  1  0
 19 20  1  0
 24 25  2  0
 25 26  1  0
 26 29  2  0
 29 28  1  0
 28 27  2  0
 27 24  1  0
M  END
$$$$
