No_4859-complexes_sdf/6BKW-FPZ/2024-09-17-14-21-01/
     RDKit          3D

 18 20  0  0  0  0  0  0  0  0999 V2000
   -7.9040    3.9820   27.1177 C   0  0  0  0  0  0  0  0  0  0  0  0
   -7.8663    4.8694   27.9238 C   0  0  0  0  0  0  0  0  0  0  0  0
   -9.0953    3.1697   27.0532 C   0  0  0  0  0  0  0  0  0  0  0  0
  -10.1313    3.4052   27.8871 C   0  0  0  0  0  0  0  0  0  0  0  0
   -8.9489    5.3814   28.6671 C   0  0  0  0  0  0  0  0  0  0  0  0
  -10.1039    4.5714   28.7102 C   0  0  0  0  0  0  0  0  0  0  0  0
   -9.0505    1.9437   26.1963 C   0  0  0  0  0  0  0  0  0  0  0  0
   -8.3625    0.8150   26.4195 C   0  0  0  0  0  0  0  0  0  0  0  0
   -8.3440   -0.2455   25.5435 C   0  0  0  0  0  0  0  0  0  0  0  0
   -9.7341    2.0949   24.9641 C   0  0  0  0  0  0  0  0  0  0  0  0
   -9.6767    1.0740   24.0040 C   0  0  0  0  0  0  0  0  0  0  0  0
   -8.9785   -0.0790   24.3220 C   0  0  0  0  0  0  0  0  0  0  0  0
  -11.3291    2.5846   27.9134 C   0  0  0  0  0  0  0  0  0  0  0  0
  -12.4890    2.9512   27.2159 C   0  0  0  0  0  0  0  0  0  0  0  0
  -13.5858    2.1422   27.1135 C   0  0  0  0  0  0  0  0  0  0  0  0
  -11.1121    1.1614   27.8193 C   0  0  0  0  0  0  0  0  0  0  0  0
  -12.2564    0.2762   27.8597 C   0  0  0  0  0  0  0  0  0  0  0  0
  -13.4011    0.7783   27.2152 C   0  0  0  0  0  0  0  0  0  0  0  0
  3  7  1  0
  4 13  1  0
 13 14  2  0
 14 15  1  0
 15 18  2  0
 18 17  1  0
 17 16  2  0
 16 13  1  0
  1  2  2  0
  2  5  1  0
  5  6  2  0
  6  4  1  0
  4  3  2  0
  3  1  1  0
  7  8  2  0
  8  9  1  0
  9 12  2  0
 12 11  1  0
 11 10  2  0
 10  7  1  0
M  END
$$$$
