No_4634-complexes_sdf/6BKW-FPZ/2024-09-17-14-21-01/
     RDKit          3D

 12 12  0  0  0  0  0  0  0  0999 V2000
   -7.2496    3.8871   27.4508 C   0  0  0  0  0  0  0  0  0  0  0  0
   -7.6161    2.7143   27.1523 C   0  0  0  0  0  0  0  0  0  0  0  0
   -8.6212    2.2239   26.4073 C   0  0  0  0  0  0  0  0  0  0  0  0
   -8.2540    4.9237   27.1711 C   0  0  0  0  0  0  0  0  0  0  0  0
   -8.0482    6.2918   27.4896 C   0  0  1  0  0  0  0  0  0  0  0  0
   -9.5812    3.2431   26.0960 C   0  0  0  0  0  0  0  0  0  0  0  0
   -9.3651    4.5697   26.4537 C   0  0  0  0  0  0  0  0  0  0  0  0
   -7.0880    6.5656   28.3012 F   0  0  0  0  0  0  0  0  0  0  0  0
   -8.6877    7.3326   26.8482 C   0  0  0  0  0  0  0  0  0  0  0  0
   -8.8615    0.8583   26.0867 C   0  0  0  0  0  0  0  0  0  0  0  0
   -9.1283    0.4612   25.0133 C   0  0  0  0  0  0  0  0  0  0  0  0
   -9.3228   -0.9324   24.6397 C   0  0  0  0  0  0  0  0  0  0  0  0
  4  5  1  0
  5  8  1  0
  5  9  1  6
  3 10  1  0
 10 11  2  3
 11 12  1  0
  1  2  2  0
  2  3  1  0
  3  6  2  0
  6  7  1  0
  7  4  2  0
  4  1  1  0
M  END
$$$$
