No_4500-complexes_sdf/6BKW-FPZ/2024-09-17-14-21-01/
     RDKit          3D

 20 22  0  0  0  0  0  0  0  0999 V2000
   -7.7129    4.2099   27.0854 C   0  0  0  0  0  0  0  0  0  0  0  0
   -8.9133    4.4736   27.0998 C   0  0  0  0  0  0  0  0  0  0  0  0
   -9.4643    5.5426   27.7628 C   0  0  0  0  0  0  0  0  0  0  0  0
   -6.8373    4.9942   27.9785 C   0  0  0  0  0  0  0  0  0  0  0  0
   -7.3932    6.0303   28.6784 C   0  0  0  0  0  0  0  0  0  0  0  0
   -8.7122    6.3429   28.5485 C   0  0  0  0  0  0  0  0  0  0  0  0
   -9.7990    3.6123   26.2052 C   0  0  2  0  0  0  0  0  0  0  0  0
   -9.3449    2.6421   25.5836 C   0  0  0  0  0  0  0  0  0  0  0  0
   -8.4797    1.7847   26.2078 C   0  0  0  0  0  0  0  0  0  0  0  0
   -8.2160    0.4737   25.8682 C   0  0  0  0  0  0  0  0  0  0  0  0
   -9.0132   -0.0233   24.8909 C   0  0  0  0  0  0  0  0  0  0  0  0
   -9.9188    0.7670   24.1873 C   0  0  0  0  0  0  0  0  0  0  0  0
  -10.1008    2.0136   24.5471 C   0  0  0  0  0  0  0  0  0  0  0  0
  -11.1151    4.1897   25.9003 C   0  0  0  0  0  0  0  0  0  0  0  0
   -7.2578   -0.4106   26.5989 C   0  0  0  0  0  0  0  0  0  0  0  0
   -7.0683   -0.2650   27.9122 C   0  0  0  0  0  0  0  0  0  0  0  0
   -6.1866   -0.8219   28.5359 C   0  0  0  0  0  0  0  0  0  0  0  0
   -5.2288   -1.6589   27.9314 C   0  0  0  0  0  0  0  0  0  0  0  0
   -5.3411   -1.8153   26.5638 C   0  0  0  0  0  0  0  0  0  0  0  0
   -6.3181   -1.1396   25.8614 C   0  0  0  0  0  0  0  0  0  0  0  0
  2  7  1  0
  7  8  1  0
  7 14  1  6
 10 15  1  0
 15 16  2  0
 16 17  1  0
 17 18  2  0
 18 19  1  0
 19 20  2  0
 20 15  1  0
  1  2  2  0
  2  3  1  0
  3  6  2  0
  6  5  1  0
  5  4  2  0
  4  1  1  0
  8  9  2  0
  9 10  1  0
 10 11  2  0
 11 12  1  0
 12 13  2  0
 13  8  1  0
M  END
$$$$
