No_4356-complexes_sdf/6BKW-FPZ/2024-09-17-14-21-01/
     RDKit          3D

 15 16  0  0  0  0  0  0  0  0999 V2000
   -7.9040    3.9820   27.1177 C   0  0  0  0  0  0  0  0  0  0  0  0
   -7.8663    4.8694   27.9238 C   0  0  0  0  0  0  0  0  0  0  0  0
   -9.0491    3.8523   26.2542 C   0  0  0  0  0  0  0  0  0  0  0  0
   -8.7661    5.9491   27.9690 C   0  0  0  0  0  0  0  0  0  0  0  0
   -9.9295    4.8502   26.2323 C   0  0  0  0  0  0  0  0  0  0  0  0
   -9.8077    5.9288   27.0933 C   0  0  0  0  0  0  0  0  0  0  0  0
   -7.0146    2.9513   27.1368 F   0  0  0  0  0  0  0  0  0  0  0  0
   -9.1015    2.7190   25.2776 C   0  0  0  0  0  0  0  0  0  0  0  0
  -10.0379    2.8545   24.3050 N   0  0  0  0  0  0  0  0  0  0  0  0
  -10.6415    3.8342   23.8877 C   0  0  0  0  0  0  0  0  0  0  0  0
  -11.5895    3.7729   22.8199 C   0  0  0  0  0  0  0  0  0  0  0  0
  -10.1403    1.6366   23.4741 C   0  0  0  0  0  0  0  0  0  0  0  0
  -10.9097    1.5989   22.3716 C   0  0  0  0  0  0  0  0  0  0  0  0
  -11.6027    2.7150   21.9930 C   0  0  0  0  0  0  0  0  0  0  0  0
   -8.4168    1.6911   25.5060 O   0  0  0  0  0  0  0  0  0  0  0  0
  1  7  1  0
  3  8  1  0
  8  9  1  0
  9 10  1  0
  9 12  1  0
 11 14  1  0
 13 14  1  0
  8 15  2  0
 10 11  1  0
 13 12  1  0
  1  2  2  0
  2  4  1  0
  4  6  2  0
  6  5  1  0
  5  3  2  0
  3  1  1  0
M  END
$$$$
