No_4171-complexes_sdf/6BKW-FPZ/2024-09-17-14-21-01/
     RDKit          3D

 15 16  0  0  0  0  0  0  0  0999 V2000
   -7.2496    3.8871   27.4508 C   0  0  0  0  0  0  0  0  0  0  0  0
   -8.5096    4.0291   27.2770 C   0  0  0  0  0  0  0  0  0  0  0  0
   -9.3451    2.8786   26.9046 C   0  0  0  0  0  0  0  0  0  0  0  0
   -6.6065    2.5680   27.5073 C   0  0  0  0  0  0  0  0  0  0  0  0
   -7.4233    1.4858   27.2402 C   0  0  0  0  0  0  0  0  0  0  0  0
   -8.7362    1.6525   26.9989 C   0  0  0  0  0  0  0  0  0  0  0  0
   -8.9210    5.4790   27.2100 C   0  0  0  0  0  0  0  0  0  0  0  0
  -10.1613    5.7210   27.0804 O   0  0  0  0  0  0  0  0  0  0  0  0
   -8.0665    6.4133   27.2352 O   0  0  0  0  0  0  0  0  0  0  0  0
   -6.6143    0.2144   27.2790 C   0  0  0  0  0  0  0  0  0  0  0  0
   -7.1489   -0.8553   27.5480 C   0  0  0  0  0  0  0  0  0  0  0  0
   -6.4340   -2.0894   27.6623 C   0  0  0  0  0  0  0  0  0  0  0  0
   -5.0850   -2.0374   27.3143 C   0  0  0  0  0  0  0  0  0  0  0  0
   -5.1775    0.1958   27.0569 C   0  0  0  0  0  0  0  0  0  0  0  0
   -4.4588   -0.8587   27.0174 C   0  0  0  0  0  0  0  0  0  0  0  0
  2  7  1  0
  7  8  2  0
  7  9  1  0
  5 10  1  0
  1  2  2  0
  2  3  1  0
  3  6  2  0
  6  5  1  0
  5  4  2  0
  4  1  1  0
 10 11  2  0
 11 12  1  0
 12 13  2  0
 13 15  1  0
 15 14  2  0
 14 10  1  0
M  END
$$$$
