No_4338-complexes_sdf/6BKW-FPZ/2024-09-17-14-21-01/
     RDKit          3D

 22 24  0  0  0  0  0  0  0  0999 V2000
   -7.7129    4.2099   27.0854 C   0  0  0  0  0  0  0  0  0  0  0  0
   -8.9133    4.4736   27.0998 C   0  0  0  0  0  0  0  0  0  0  0  0
   -9.7135    3.9633   26.0300 C   0  0  0  0  0  0  0  0  0  0  0  0
   -7.1708    2.9509   26.6517 C   0  0  0  0  0  0  0  0  0  0  0  0
   -8.1338    2.1226   26.0346 C   0  0  0  0  0  0  0  0  0  0  0  0
  -10.9805    4.4742   25.7264 C   0  0  0  0  0  0  0  0  0  0  0  0
   -9.3636    2.6562   25.7272 C   0  0  0  0  0  0  0  0  0  0  0  0
  -12.0719    4.1414   26.5691 C   0  0  0  0  0  0  0  0  0  0  0  0
  -11.9592    4.3833   27.8920 C   0  0  0  0  0  0  0  0  0  0  0  0
  -13.3417    3.8186   26.0106 C   0  0  0  0  0  0  0  0  0  0  0  0
   -6.6129    4.9756   28.3274 Cl  0  0  0  0  0  0  0  0  0  0  0  0
  -13.0393    4.0481   28.8154 C   0  0  0  0  0  0  0  0  0  0  0  0
  -13.4464    3.7422   24.6232 C   0  0  0  0  0  0  0  0  0  0  0  0
  -14.2536    3.6970   28.2729 C   0  0  0  0  0  0  0  0  0  0  0  0
  -14.3910    3.5888   26.8936 C   0  0  0  0  0  0  0  0  0  0  0  0
  -14.1542    2.9510   24.0794 C   0  0  0  0  0  0  0  0  0  0  0  0
  -14.7968    1.9254   24.8636 C   0  0  0  0  0  0  0  0  0  0  0  0
  -15.6188    0.9277   24.2700 C   0  0  0  0  0  0  0  0  0  0  0  0
  -14.9286    2.1550   26.3121 C   0  0  0  0  0  0  0  0  0  0  0  0
  -15.5997    0.7626   23.2442 F   0  0  0  0  0  0  0  0  0  0  0  0
  -15.1801   -0.2158   24.9685 F   0  0  0  0  0  0  0  0  0  0  0  0
  -16.8876    1.0887   24.7337 F   0  0  0  0  0  0  0  0  0  0  0  0
  3  6  1  0
  6  8  1  0
  1 11  1  0
 17 18  1  0
 18 20  1  0
 18 21  1  0
 18 22  1  0
 10 13  2  0
 13 16  1  0
 16 17  2  0
 17 19  1  0
 19 15  2  0
  1  2  2  0
  2  3  1  0
  3  7  2  0
  7  5  1  0
  5  4  2  0
  4  1  1  0
  8  9  2  0
  9 12  1  0
 12 14  2  0
 14 15  1  0
 15 10  1  0
 10  8  1  0
M  END
$$$$
