No_4144-complexes_sdf/6BKW-FPZ/2024-09-17-14-21-01/
     RDKit          3D

 25 28  0  0  0  0  0  0  0  0999 V2000
   -7.7129    4.2099   27.0854 C   0  0  0  0  0  0  0  0  0  0  0  0
   -7.7814    5.1722   27.8972 C   0  0  0  0  0  0  0  0  0  0  0  0
   -8.8998    3.8713   26.3707 C   0  0  0  0  0  0  0  0  0  0  0  0
   -8.9563    2.6796   25.5490 C   0  0  0  0  0  0  0  0  0  0  0  0
   -8.8131    6.0996   27.7331 C   0  0  0  0  0  0  0  0  0  0  0  0
   -9.8942    4.7752   26.3268 C   0  0  0  0  0  0  0  0  0  0  0  0
   -9.8180    5.9214   27.0054 C   0  0  0  0  0  0  0  0  0  0  0  0
   -9.7210    1.7437   26.1128 C   0  0  0  0  0  0  0  0  0  0  0  0
   -9.4710    0.4998   25.8112 C   0  0  0  0  0  0  0  0  0  0  0  0
  -10.2291   -0.6307   26.4192 C   0  0  0  0  0  0  0  0  0  0  0  0
  -11.1865   -0.2792   27.3913 C   0  0  0  0  0  0  0  0  0  0  0  0
  -11.3672    1.0302   27.7686 C   0  0  0  0  0  0  0  0  0  0  0  0
  -10.6345    2.0482   27.2172 C   0  0  0  0  0  0  0  0  0  0  0  0
   -8.5435    0.0196   24.7883 C   0  0  0  0  0  0  0  0  0  0  0  0
   -8.5768   -1.1512   24.0681 C   0  0  0  0  0  0  0  0  0  0  0  0
   -7.6738   -1.3714   23.0615 C   0  0  0  0  0  0  0  0  0  0  0  0
   -6.6698   -0.4055   22.7270 C   0  0  0  0  0  0  0  0  0  0  0  0
   -6.6561    0.7533   23.4660 C   0  0  0  0  0  0  0  0  0  0  0  0
   -7.4803    1.0168   24.4133 C   0  0  0  0  0  0  0  0  0  0  0  0
   -7.6525   -2.6692   22.3462 C   0  0  0  0  0  0  0  0  0  0  0  0
   -7.3104   -2.7018   21.0887 C   0  0  0  0  0  0  0  0  0  0  0  0
   -8.1347   -3.8036   22.9791 C   0  0  0  0  0  0  0  0  0  0  0  0
   -8.3399   -4.8766   22.3414 C   0  0  0  0  0  0  0  0  0  0  0  0
   -7.4065   -3.8676   20.2980 C   0  0  0  0  0  0  0  0  0  0  0  0
   -7.9258   -4.9733   20.9558 C   0  0  0  0  0  0  0  0  0  0  0  0
  3  4  1  0
  4  8  1  0
  9 14  1  0
 16 20  1  0
 14 15  2  0
 15 16  1  0
 16 17  2  0
 17 18  1  0
 18 19  2  0
 19 14  1  0
 20 21  2  0
 21 24  1  0
 24 25  2  0
 25 23  1  0
 23 22  2  0
 22 20  1  0
  8  9  1  0
  9 10  2  0
 10 11  1  0
 11 12  2  0
 12 13  1  0
 13  8  2  0
  1  2  2  0
  2  5  1  0
  5  7  2  0
  7  6  1  0
  6  3  2  0
  3  1  1  0
M  END
$$$$
