No_4183-complexes_sdf/6BKW-FPZ/2024-09-17-14-21-01/
     RDKit          3D

 17 18  0  0  0  0  0  0  0  0999 V2000
   -7.7129    4.2099   27.0854 C   0  0  0  0  0  0  0  0  0  0  0  0
   -7.7814    5.1722   27.8972 C   0  0  0  0  0  0  0  0  0  0  0  0
   -8.8776    3.8408   26.3416 C   0  0  0  0  0  0  0  0  0  0  0  0
   -9.9844    4.6492   26.4743 C   0  0  0  0  0  0  0  0  0  0  0  0
   -8.8033    6.1375   27.8728 C   0  0  0  0  0  0  0  0  0  0  0  0
   -9.9554    5.8280   27.1737 C   0  0  0  0  0  0  0  0  0  0  0  0
   -8.8740    2.6184   25.5584 C   0  0  0  0  0  0  0  0  0  0  0  0
   -8.2606    1.4639   26.1340 C   0  0  0  0  0  0  0  0  0  0  0  0
   -7.8238    1.4892   27.3984 C   0  0  0  0  0  0  0  0  0  0  0  0
   -8.2561    0.3094   25.2706 C   0  0  0  0  0  0  0  0  0  0  0  0
   -7.1797    0.2019   27.8201 C   0  0  0  0  0  0  0  0  0  0  0  0
   -7.6634   -0.8576   25.7651 C   0  0  0  0  0  0  0  0  0  0  0  0
   -7.1112   -0.8833   27.0702 C   0  0  0  0  0  0  0  0  0  0  0  0
   -9.8290    2.5306   24.7340 C   0  0  0  0  0  0  0  0  0  0  0  0
   -9.7739    3.2912   23.5318 C   0  0  0  0  0  0  0  0  0  0  0  0
  -10.7372    3.2494   22.4724 C   0  0  0  0  0  0  0  0  0  0  0  0
  -11.6542    2.2258   22.5233 C   0  0  0  0  0  0  0  0  0  0  0  0
  3  7  1  0
  7  8  1  0
  7 14  1  0
 14 15  2  3
 15 16  1  0
 16 17  2  0
  8  9  2  0
  9 11  1  0
 11 13  2  0
 13 12  1  0
 12 10  2  0
 10  8  1  0
  1  2  2  0
  2  5  1  0
  5  6  2  0
  6  4  1  0
  4  3  2  0
  3  1  1  0
M  END
$$$$
