No_4211-complexes_sdf/6BKW-FPZ/2024-09-17-14-21-01/
     RDKit          3D

 17 20  0  0  0  0  0  0  0  0999 V2000
   -7.7129    4.2099   27.0854 C   0  0  0  0  0  0  0  0  0  0  0  0
   -7.7814    5.1722   27.8972 C   0  0  0  0  0  0  0  0  0  0  0  0
   -8.8776    3.8408   26.3416 C   0  0  2  0  0  0  0  0  0  0  0  0
   -9.9844    4.6492   26.4743 C   0  0  0  0  0  0  0  0  0  0  0  0
   -8.7830    6.1594   27.8870 C   0  0  0  0  0  0  0  0  0  0  0  0
   -9.9269    5.8191   27.1183 C   0  0  0  0  0  0  0  0  0  0  0  0
   -8.8618    2.6242   25.5633 C   0  0  0  0  0  0  0  0  0  0  0  0
   -9.7553    2.4751   24.5392 C   0  0  0  0  0  0  0  0  0  0  0  0
   -9.7633    1.3202   23.7592 C   0  0  0  0  0  0  0  0  0  0  0  0
   -8.7809    0.3063   24.0395 C   0  0  0  0  0  0  0  0  0  0  0  0
   -7.9393    0.4369   25.0994 C   0  0  0  0  0  0  0  0  0  0  0  0
   -7.9393    1.5988   25.9054 C   0  0  0  0  0  0  0  0  0  0  0  0
  -10.6819    1.4097   22.6390 C   0  0  0  0  0  0  0  0  0  0  0  0
  -11.2927    2.1423   22.2321 N   0  0  0  0  0  0  0  0  0  0  0  0
  -11.2461    3.3306   22.9446 C   0  0  0  0  0  0  0  0  0  0  0  0
  -10.5577    3.5498   24.0684 C   0  0  0  0  0  0  0  0  0  0  0  0
  -10.8791    4.4857   25.3505 N   0  0  0  0  0  0  0  0  0  0  0  0
  1  2  2  0
  3  1  1  1
  3  4  1  0
  2  5  1  0
  4  6  2  0
  5  6  2  0
  3  7  1  0
  7  8  1  0
  8  9  1  0
  9 10  1  0
 10 11  2  0
  7 12  2  0
 11 12  1  0
  9 13  2  0
 13 14  1  0
 14 15  2  0
  8 16  2  0
 15 16  1  0
  4 17  1  0
 16 17  1  0
M  END
$$$$
