No_4759-complexes_sdf/6BKW-FPZ/2024-09-17-14-21-01/
     RDKit          3D

  9  9  0  0  0  0  0  0  0  0999 V2000
   -7.2496    3.8871   27.4508 C   0  0  0  0  0  0  0  0  0  0  0  0
   -7.9379    4.9063   27.8518 C   0  0  0  0  0  0  0  0  0  0  0  0
   -7.4895    6.2027   27.7481 C   0  0  0  0  0  0  0  0  0  0  0  0
   -7.8057    2.6324   27.3137 C   0  0  0  0  0  0  0  0  0  0  0  0
   -7.1675    1.4766   26.8108 C   0  0  0  0  0  0  0  0  0  0  0  0
   -9.2368    2.5282   27.5897 C   0  0  0  0  0  0  0  0  0  0  0  0
   -9.8761    1.2499   27.3233 C   0  0  0  0  0  0  0  0  0  0  0  0
   -7.7874    0.3140   26.5977 C   0  0  0  0  0  0  0  0  0  0  0  0
   -9.1776    0.1930   26.9300 C   0  0  0  0  0  0  0  0  0  0  0  0
  1  2  2  3
  2  3  1  0
  1  4  1  0
  4  5  2  0
  5  8  1  0
  8  9  2  0
  9  7  1  0
  7  6  2  0
  6  4  1  0
M  END
$$$$
