No_4547-complexes_sdf/6BKW-FPZ/2024-09-17-14-21-01/
     RDKit          3D

 16 18  0  0  0  0  0  0  0  0999 V2000
   -7.7129    4.2099   27.0854 C   0  0  0  0  0  0  0  0  0  0  0  0
   -7.7814    5.1722   27.8972 C   0  0  0  0  0  0  0  0  0  0  0  0
   -8.8255    3.2789   27.1191 C   0  0  0  0  0  0  0  0  0  0  0  0
   -8.7530    2.0643   26.3119 C   0  0  0  0  0  0  0  0  0  0  0  0
   -9.8958    1.4957   25.8527 C   0  0  0  0  0  0  0  0  0  0  0  0
  -11.1040    1.9266   26.2563 C   0  0  0  0  0  0  0  0  0  0  0  0
  -10.1519    3.6814   27.3365 C   0  0  0  0  0  0  0  0  0  0  0  0
  -11.2495    3.0371   27.1007 C   0  0  0  0  0  0  0  0  0  0  0  0
   -9.1027    5.7918   28.3109 C   0  0  0  0  0  0  0  0  0  0  0  0
  -10.2049    5.0016   28.1073 C   0  0  0  0  0  0  0  0  0  0  0  0
   -9.7326    0.2256   25.0802 C   0  0  0  0  0  0  0  0  0  0  0  0
   -9.0533   -0.7440   25.6236 C   0  0  0  0  0  0  0  0  0  0  0  0
   -8.3190   -1.5367   24.8029 C   0  0  0  0  0  0  0  0  0  0  0  0
   -8.5418   -1.5537   23.3745 C   0  0  0  0  0  0  0  0  0  0  0  0
   -9.2679   -0.4718   22.8066 C   0  0  0  0  0  0  0  0  0  0  0  0
   -9.7186    0.5206   23.6541 C   0  0  0  0  0  0  0  0  0  0  0  0
  5 11  1  0
  1  2  2  0
  2  9  1  0
  9 10  2  0
 10  7  1  0
  3  1  1  0
 11 12  2  0
 12 13  1  0
 13 14  2  0
 14 15  1  0
 15 16  2  0
 16 11  1  0
  3  4  2  0
  4  5  1  0
  5  6  2  0
  6  8  1  0
  8  7  2  0
  7  3  1  0
M  END
$$$$
