No_4010-complexes_sdf/6BKW-FPZ/2024-09-17-14-21-01/
     RDKit          3D

 16 17  0  0  0  0  0  0  0  0999 V2000
   -7.2496    3.8871   27.4508 C   0  0  0  0  0  0  0  0  0  0  0  0
   -7.6161    2.7143   27.1523 C   0  0  0  0  0  0  0  0  0  0  0  0
   -8.6212    2.2239   26.4073 C   0  0  0  0  0  0  0  0  0  0  0  0
   -8.2540    4.9237   27.1711 C   0  0  0  0  0  0  0  0  0  0  0  0
   -9.3729    4.5806   26.4432 C   0  0  0  0  0  0  0  0  0  0  0  0
   -9.5830    3.2968   26.1025 C   0  0  0  0  0  0  0  0  0  0  0  0
   -7.8801    6.5457   27.6185 Cl  0  0  0  0  0  0  0  0  0  0  0  0
   -8.8699    0.8883   26.0645 C   0  0  0  0  0  0  0  0  0  0  0  0
   -9.3054    0.0250   26.9275 C   0  0  0  0  0  0  0  0  0  0  0  0
   -9.8774    0.2844   28.0533 C   0  0  0  0  0  0  0  0  0  0  0  0
  -10.3075    1.6495   28.2313 C   0  0  0  0  0  0  0  0  0  0  0  0
  -10.8629    2.8633   26.5713 C   0  0  0  0  0  0  0  0  0  0  0  0
  -11.1427    2.3781   27.8053 C   0  0  1  0  0  0  0  0  0  0  0  0
  -12.4379    2.6556   28.4745 C   0  0  0  0  0  0  0  0  0  0  0  0
  -12.4392    3.4378   29.5076 C   0  0  0  0  0  0  0  0  0  0  0  0
  -13.6193    3.7528   30.2816 C   0  0  0  0  0  0  0  0  0  0  0  0
  4  7  1  0
  3  8  1  0
  8  9  1  0
  9 10  2  3
 10 11  1  0
  6 12  1  0
 13 11  1  6
 12 13  1  0
 13 14  1  0
 14 15  2  3
 15 16  1  0
  1  2  2  0
  2  3  1  0
  3  6  2  0
  6  5  1  0
  5  4  2  0
  4  1  1  0
M  END
$$$$
