No_4567-complexes_sdf/6BKW-FPZ/2024-09-17-14-21-01/
     RDKit          3D

 18 20  0  0  0  0  0  0  0  0999 V2000
   -7.2496    3.8871   27.4508 C   0  0  0  0  0  0  0  0  0  0  0  0
   -8.5096    4.0291   27.2770 C   0  0  0  0  0  0  0  0  0  0  0  0
   -9.3451    2.8786   26.9046 C   0  0  0  0  0  0  0  0  0  0  0  0
   -6.6065    2.5680   27.5073 C   0  0  0  0  0  0  0  0  0  0  0  0
   -7.4233    1.4858   27.2402 C   0  0  0  0  0  0  0  0  0  0  0  0
   -6.8482    0.1968   27.2983 C   0  0  0  0  0  0  0  0  0  0  0  0
   -8.7583    1.6535   26.9831 C   0  0  0  0  0  0  0  0  0  0  0  0
   -9.1124    5.3980   27.2224 C   0  0  0  0  0  0  0  0  0  0  0  0
   -5.5696    0.0638   27.8220 C   0  0  0  0  0  0  0  0  0  0  0  0
   -5.0024   -1.2011   27.9492 C   0  0  0  0  0  0  0  0  0  0  0  0
  -10.3219    5.4419   27.6579 F   0  0  0  0  0  0  0  0  0  0  0  0
   -9.0598    5.9364   25.9705 F   0  0  0  0  0  0  0  0  0  0  0  0
   -8.3646    6.3298   27.9248 F   0  0  0  0  0  0  0  0  0  0  0  0
   -3.7385   -1.3387   28.6473 C   0  0  0  0  0  0  0  0  0  0  0  0
   -3.0270   -0.1875   29.0616 C   0  0  0  0  0  0  0  0  0  0  0  0
   -3.6807    1.0859   28.9538 C   0  0  0  0  0  0  0  0  0  0  0  0
   -4.8889    1.1780   28.3945 C   0  0  0  0  0  0  0  0  0  0  0  0
   -5.4832    2.4442   28.1580 N   0  0  0  0  0  0  0  0  0  0  0  0
  2  8  1  0
  8 11  1  0
  8 12  1  0
  8 13  1  0
  9 10  2  0
 10 14  1  0
 14 15  2  0
 15 16  1  0
 16 17  2  0
  5  6  2  0
  6  9  1  0
  9 17  1  0
 17 18  1  0
 18  4  2  0
  1  2  2  0
  2  3  1  0
  3  7  2  0
  7  5  1  0
  5  4  1  0
  4  1  1  0
M  END
$$$$
