No_446-complexes_sdf/6BKW-FPZ/2024-09-17-14-21-01/
     RDKit          3D

 40 45  0  0  0  0  0  0  0  0999 V2000
   -7.9040    3.9820   27.1177 C   0  0  0  0  0  0  0  0  0  0  0  0
   -9.0711    4.3164   27.0630 C   0  0  0  0  0  0  0  0  0  0  0  0
   -9.5182    5.5541   27.5777 C   0  0  0  0  0  0  0  0  0  0  0  0
   -6.9424    4.7983   27.8424 C   0  0  0  0  0  0  0  0  0  0  0  0
   -7.3526    5.9739   28.3909 C   0  0  0  0  0  0  0  0  0  0  0  0
   -8.6479    6.3742   28.2169 C   0  0  0  0  0  0  0  0  0  0  0  0
  -10.0793    3.4689   26.3368 C   0  0  0  0  0  0  0  0  0  0  0  0
  -10.8065    3.4472   25.6317 C   0  0  0  0  0  0  0  0  0  0  0  0
  -11.5555    2.3861   24.9819 C   0  0  0  0  0  0  0  0  0  0  0  0
  -11.0845    1.4167   25.2056 C   0  0  0  0  0  0  0  0  0  0  0  0
   -9.7554    1.8558   26.3207 C   0  0  2  0  0  0  0  0  0  0  0  0
   -8.9011    1.0364   26.9144 C   0  0  0  0  0  0  0  0  0  0  0  0
   -9.1284   -0.2550   27.0863 C   0  0  0  0  0  0  0  0  0  0  0  0
   -8.2240   -1.0742   27.8333 C   0  0  0  0  0  0  0  0  0  0  0  0
   -6.9213   -0.6166   28.0322 C   0  0  0  0  0  0  0  0  0  0  0  0
   -6.5672    0.6978   27.6772 C   0  0  0  0  0  0  0  0  0  0  0  0
   -7.4696    1.5164   27.1027 C   0  0  0  0  0  0  0  0  0  0  0  0
   -5.7965   -1.3853   28.6389 C   0  0  2  0  0  0  0  0  0  0  0  0
   -5.8592   -2.0209   29.6130 N   0  0  0  0  0  0  0  0  0  0  0  0
   -5.7252   -1.7568   30.7220 C   0  0  0  0  0  0  0  0  0  0  0  0
   -4.7503   -0.6795   31.0042 C   0  0  0  0  0  0  0  0  0  0  0  0
   -4.4956   -0.0986   32.3021 C   0  0  0  0  0  0  0  0  0  0  0  0
   -5.1928   -0.7614   33.3362 C   0  0  0  0  0  0  0  0  0  0  0  0
   -6.1732   -1.7530   33.1578 C   0  0  0  0  0  0  0  0  0  0  0  0
   -6.4243   -2.1897   31.8696 C   0  0  0  0  0  0  0  0  0  0  0  0
   -6.3089   -3.4002   29.3075 C   0  0  0  0  0  0  0  0  0  0  0  0
   -4.6098   -0.6738   28.5189 C   0  0  0  0  0  0  0  0  0  0  0  0
   -4.0965   -0.1008   29.8076 C   0  0  2  0  0  0  0  0  0  0  0  0
   -5.2706   -4.2553   29.3232 C   0  0  0  0  0  0  0  0  0  0  0  0
   -5.5056   -5.5213   29.2182 C   0  0  0  0  0  0  0  0  0  0  0  0
   -4.4204   -6.4738   29.2078 C   0  0  0  0  0  0  0  0  0  0  0  0
   -3.1042   -6.0023   29.3661 C   0  0  0  0  0  0  0  0  0  0  0  0
   -2.8766   -4.6507   29.5374 C   0  0  0  0  0  0  0  0  0  0  0  0
   -3.8681   -3.7951   29.5483 C   0  0  0  0  0  0  0  0  0  0  0  0
   -2.9335    0.7221   29.9301 C   0  0  0  0  0  0  0  0  0  0  0  0
   -7.4327   -3.6713   29.0851 O   0  0  0  0  0  0  0  0  0  0  0  0
  -12.7056    2.5435   24.0448 C   0  0  2  0  0  0  0  0  0  0  0  0
  -12.6870    3.4714   23.1403 C   0  0  0  0  0  0  0  0  0  0  0  0
  -13.9736    2.6591   24.8605 C   0  0  0  0  0  0  0  0  0  0  0  0
  -15.0813    2.8241   24.1970 C   0  0  0  0  0  0  0  0  0  0  0  0
  2  7  1  0
  7  8  2  0
  8  9  1  0
  9 10  2  0
  7 11  1  0
 10 11  1  0
 11 12  1  1
 18 15  1  1
 18 19  1  0
 19 20  1  0
 19 26  1  0
 18 27  1  0
 21 28  1  0
 27 28  1  0
 26 29  1  0
 28 35  1  1
 26 36  2  0
  9 37  1  0
 37 38  1  1
 37 39  1  0
 39 40  2  0
 12 13  2  0
 13 14  1  0
 14 15  2  0
 15 16  1  0
 16 17  2  0
 17 12  1  0
  1  2  2  0
  2  3  1  0
  3  6  2  0
  6  5  1  0
  5  4  2  0
  4  1  1  0
 29 30  2  0
 30 31  1  0
 31 32  2  0
 32 33  1  0
 33 34  2  0
 34 29  1  0
 20 25  1  0
 25 24  2  0
 24 23  1  0
 23 22  2  0
 22 21  1  0
 21 20  2  0
M  END
$$$$
