No_428-complexes_sdf/6BKW-FPZ/2024-09-17-14-21-01/
     RDKit          3D

 23 25  0  0  0  0  0  0  0  0999 V2000
   -7.2496    3.8871   27.4508 C   0  0  0  0  0  0  0  0  0  0  0  0
   -7.9379    4.9063   27.8518 C   0  0  0  0  0  0  0  0  0  0  0  0
   -9.3376    4.8647   27.7795 C   0  0  0  0  0  0  0  0  0  0  0  0
   -7.8544    2.6294   27.0414 C   0  0  0  0  0  0  0  0  0  0  0  0
   -9.2665    2.6175   27.0340 C   0  0  0  0  0  0  0  0  0  0  0  0
   -9.8252    3.5632   27.3683 C   0  0  0  0  0  0  0  0  0  0  0  0
  -11.4443    3.5602   27.3662 C   0  0  0  0  0  0  0  0  0  0  0  0
  -11.9704    2.4936   27.6677 C   0  0  0  0  0  0  0  0  0  0  0  0
  -13.4120    2.2986   27.7109 C   0  0  0  0  0  0  0  0  0  0  0  0
  -14.1562    3.4615   27.4724 C   0  0  0  0  0  0  0  0  0  0  0  0
  -13.5765    4.6646   27.1851 C   0  0  0  0  0  0  0  0  0  0  0  0
  -12.1639    4.7733   27.1680 C   0  0  0  0  0  0  0  0  0  0  0  0
   -7.0226    1.4626   26.7561 C   0  0  0  0  0  0  0  0  0  0  0  0
   -7.1917    0.3801   27.6467 C   0  0  0  0  0  0  0  0  0  0  0  0
   -6.0891   -0.3538   28.0025 C   0  0  0  0  0  0  0  0  0  0  0  0
   -6.0017   -1.4959   28.4761 C   0  0  0  0  0  0  0  0  0  0  0  0
   -7.2808   -2.0842   28.8419 C   0  0  0  0  0  0  0  0  0  0  0  0
   -8.4655   -1.4999   28.3951 C   0  0  0  0  0  0  0  0  0  0  0  0
   -8.3994   -0.2897   27.7160 C   0  0  0  0  0  0  0  0  0  0  0  0
   -7.3453    6.0466   28.2233 F   0  0  0  0  0  0  0  0  0  0  0  0
   -4.6744    0.3618   27.7717 C   0  0  0  0  0  0  0  0  0  0  0  0
   -3.6209   -0.1905   28.0071 C   0  0  0  0  0  0  0  0  0  0  0  0
   -3.5852   -1.4806   28.6388 C   0  0  0  0  0  0  0  0  0  0  0  0
  6  7  1  0
  4 13  1  0
 13 14  1  0
  2 20  1  0
 15 21  1  0
 21 22  2  3
 22 23  1  0
 14 15  2  0
 15 16  1  0
 16 17  2  0
 17 18  1  0
 18 19  2  0
 19 14  1  0
  1  2  2  0
  2  3  1  0
  3  6  2  0
  6  5  1  0
  5  4  2  0
  4  1  1  0
  7  8  2  0
  8  9  1  0
  9 10  2  0
 10 11  1  0
 11 12  2  0
 12  7  1  0
M  END
$$$$
