No_4641-complexes_sdf/6BKW-FPZ/2024-09-17-14-21-01/
     RDKit          3D

 15 16  0  0  0  0  0  0  0  0999 V2000
   -7.7129    4.2099   27.0854 C   0  0  0  0  0  0  0  0  0  0  0  0
   -8.2112    3.0637   26.9225 C   0  0  0  0  0  0  0  0  0  0  0  0
   -8.5108    5.3904   26.9436 C   0  0  0  0  0  0  0  0  0  0  0  0
   -9.7256    5.1955   26.3518 C   0  0  0  0  0  0  0  0  0  0  0  0
   -7.4704    1.8386   27.3272 C   0  0  0  0  0  0  0  0  0  0  0  0
   -9.4956    2.7608   26.4620 C   0  0  0  0  0  0  0  0  0  0  0  0
  -10.2454    3.9392   26.1664 C   0  0  0  0  0  0  0  0  0  0  0  0
   -7.8418    0.5494   27.1766 C   0  0  0  0  0  0  0  0  0  0  0  0
   -7.0918   -0.4810   27.5303 C   0  0  0  0  0  0  0  0  0  0  0  0
   -5.7674   -0.2443   27.9812 C   0  0  0  0  0  0  0  0  0  0  0  0
   -5.2742    1.0642   28.0668 C   0  0  0  0  0  0  0  0  0  0  0  0
   -6.0212    2.0784   27.7200 C   0  0  0  0  0  0  0  0  0  0  0  0
   -7.9958    6.6477   27.1318 N   0  0  0  0  0  0  0  0  0  0  0  0
   -3.9976    1.2881   28.4858 O   0  0  0  0  0  0  0  0  0  0  0  0
   -6.9843    6.7695   27.8814 O   0  0  0  0  0  0  0  0  0  0  0  0
  2  5  1  0
  3 13  1  0
 11 14  1  0
 13 15  2  0
  5  8  2  0
  8  9  1  0
  9 10  2  0
 10 11  1  0
 11 12  2  0
 12  5  1  0
  1  2  2  0
  2  6  1  0
  6  7  2  0
  7  4  1  0
  4  3  2  0
  3  1  1  0
M  END
$$$$
