No_4744-complexes_sdf/6BKW-FPZ/2024-09-17-14-21-01/
     RDKit          3D

 40 45  0  0  0  0  0  0  0  0999 V2000
   -7.7129    4.2099   27.0854 C   0  0  0  0  0  0  0  0  0  0  0  0
   -8.9133    4.4736   27.0998 C   0  0  0  0  0  0  0  0  0  0  0  0
   -9.4643    5.5426   27.7628 C   0  0  0  0  0  0  0  0  0  0  0  0
   -6.8373    4.9942   27.9785 C   0  0  0  0  0  0  0  0  0  0  0  0
   -7.3932    6.0303   28.6784 C   0  0  0  0  0  0  0  0  0  0  0  0
   -8.7122    6.3429   28.5485 C   0  0  0  0  0  0  0  0  0  0  0  0
   -9.6269    3.4988   26.1115 C   0  0  0  0  0  0  0  0  0  0  0  0
  -10.2144    4.0745   25.0236 C   0  0  0  0  0  0  0  0  0  0  0  0
  -10.8277    3.3690   23.9833 C   0  0  0  0  0  0  0  0  0  0  0  0
  -10.7654    1.9954   24.0331 C   0  0  0  0  0  0  0  0  0  0  0  0
   -9.5565    2.1657   26.0792 C   0  0  0  0  0  0  0  0  0  0  0  0
  -10.0999    1.3979   25.1359 C   0  0  0  0  0  0  0  0  0  0  0  0
  -11.4071    1.2141   22.9623 C   0  0  0  0  0  0  0  0  0  0  0  0
  -12.4668    1.3803   22.5791 C   0  0  0  0  0  0  0  0  0  0  0  0
  -13.0693    0.5947   21.4689 C   0  0  0  0  0  0  0  0  0  0  0  0
  -12.2846   -0.4057   20.9108 C   0  0  0  0  0  0  0  0  0  0  0  0
  -10.9773   -0.6031   21.3479 C   0  0  0  0  0  0  0  0  0  0  0  0
  -10.4266    0.1973   22.3620 C   0  0  0  0  0  0  0  0  0  0  0  0
   -8.7846    1.4289   27.1835 C   0  0  0  0  0  0  0  0  0  0  0  0
   -8.9471    0.1101   27.4446 C   0  0  0  0  0  0  0  0  0  0  0  0
   -8.1165   -0.5573   28.2973 C   0  0  0  0  0  0  0  0  0  0  0  0
   -6.7172   -0.2314   28.2995 C   0  0  0  0  0  0  0  0  0  0  0  0
   -5.7611   -0.9029   29.0473 C   0  0  0  0  0  0  0  0  0  0  0  0
   -6.1867   -1.9845   29.8321 C   0  0  0  0  0  0  0  0  0  0  0  0
   -7.5298   -2.3596   29.8027 C   0  0  0  0  0  0  0  0  0  0  0  0
   -8.4382   -1.7008   29.0583 C   0  0  0  0  0  0  0  0  0  0  0  0
   -4.3824   -0.3785   29.0475 C   0  0  0  0  0  0  0  0  0  0  0  0
   -4.0361    0.5434   28.1732 C   0  0  0  0  0  0  0  0  0  0  0  0
   -5.0066    1.2441   27.4202 C   0  0  0  0  0  0  0  0  0  0  0  0
   -6.2742    0.8781   27.4520 C   0  0  0  0  0  0  0  0  0  0  0  0
   -3.3479   -1.0208   29.9286 C   0  0  0  0  0  0  0  0  0  0  0  0
   -3.4477   -1.9344   30.7615 C   0  0  0  0  0  0  0  0  0  0  0  0
   -2.3013   -2.2230   31.5625 C   0  0  0  0  0  0  0  0  0  0  0  0
   -1.1629   -1.9000   31.2269 C   0  0  0  0  0  0  0  0  0  0  0  0
   -0.9077   -1.0541   30.1393 C   0  0  0  0  0  0  0  0  0  0  0  0
   -2.0117   -0.5645   29.4814 C   0  0  0  0  0  0  0  0  0  0  0  0
   -7.9940   -3.5156   30.6188 C   0  0  0  0  0  0  0  0  0  0  0  0
   -9.0469   -3.7209   30.8378 O   0  0  0  0  0  0  0  0  0  0  0  0
   -6.9829   -4.0261   31.4897 N   0  0  0  0  0  0  0  0  0  0  0  0
   -7.0334   -4.9866   32.2400 C   0  0  0  0  0  0  0  0  0  0  0  0
  2  7  1  0
 10 13  1  0
 11 19  1  0
 19 20  2  3
 20 21  1  0
 27 31  1  0
 25 37  1  0
 37 38  2  0
 37 39  1  0
 39 40  1  0
  1  2  2  0
  2  3  1  0
  3  6  2  0
  6  5  1  0
  5  4  2  0
  4  1  1  0
 31 32  2  0
 32 33  1  0
 33 34  2  0
 34 35  1  0
 35 36  2  0
 36 31  1  0
 23 27  1  0
 27 28  2  0
 28 29  1  0
 29 30  2  0
 30 22  1  0
  7  8  2  0
  8  9  1  0
  9 10  2  0
 10 12  1  0
 12 11  2  0
 11  7  1  0
 13 14  2  0
 14 15  1  0
 15 16  2  0
 16 17  1  0
 17 18  2  0
 18 13  1  0
 21 22  2  0
 22 23  1  0
 23 24  2  0
 24 25  1  0
 25 26  2  0
 26 21  1  0
M  END
$$$$
