No_4319-complexes_sdf/6BKW-FPZ/2024-09-17-14-21-01/
     RDKit          3D

 16 17  0  0  0  0  0  0  0  0999 V2000
   -7.2496    3.8871   27.4508 C   0  0  0  0  0  0  0  0  0  0  0  0
   -7.9379    4.9063   27.8518 C   0  0  0  0  0  0  0  0  0  0  0  0
   -7.5112    6.1898   27.6280 C   0  0  0  0  0  0  0  0  0  0  0  0
   -7.8078    2.6331   27.2522 C   0  0  2  0  0  0  0  0  0  0  0  0
   -9.1846    2.4724   27.5426 C   0  0  0  0  0  0  0  0  0  0  0  0
   -9.9168    3.5155   28.0405 C   0  0  0  0  0  0  0  0  0  0  0  0
   -9.3366    4.7963   28.1727 C   0  0  0  0  0  0  0  0  0  0  0  0
  -11.3251    3.2741   28.4031 C   0  0  0  0  0  0  0  0  0  0  0  0
  -12.2439    3.1527   27.5432 C   0  0  0  0  0  0  0  0  0  0  0  0
  -13.6059    2.9320   27.9394 C   0  0  0  0  0  0  0  0  0  0  0  0
  -13.8490    2.7050   28.9090 C   0  0  0  0  0  0  0  0  0  0  0  0
  -12.9903    2.7121   30.1025 C   0  0  0  0  0  0  0  0  0  0  0  0
  -11.6803    3.0094   29.8120 C   0  0  0  0  0  0  0  0  0  0  0  0
   -7.0640    1.4431   26.8444 C   0  0  0  0  0  0  0  0  0  0  0  0
   -5.9819    1.1442   27.5105 O   0  0  0  0  0  0  0  0  0  0  0  0
   -7.5249    0.6323   26.0125 O   0  0  0  0  0  0  0  0  0  0  0  0
  1  2  1  0
  2  3  2  0
  1  4  1  0
  4  5  1  0
  5  6  1  0
  2  7  1  0
  6  7  1  0
  6  8  1  0
  4 14  1  1
 14 15  2  0
 14 16  1  0
  8  9  2  0
  9 10  1  0
 10 11  2  0
 11 12  1  0
 12 13  2  0
 13  8  1  0
M  END
$$$$
