No_4938-complexes_sdf/6BKW-FPZ/2024-09-17-14-21-01/
     RDKit          3D

 18 19  0  0  0  0  0  0  0  0999 V2000
   -7.7129    4.2099   27.0854 C   0  0  0  0  0  0  0  0  0  0  0  0
   -8.2112    3.0637   26.9225 C   0  0  0  0  0  0  0  0  0  0  0  0
   -8.5108    5.3904   26.9436 C   0  0  0  0  0  0  0  0  0  0  0  0
   -7.9752    6.6981   27.2112 C   0  0  1  0  0  0  0  0  0  0  0  0
   -9.5213    2.8208   26.4688 C   0  0  0  0  0  0  0  0  0  0  0  0
  -10.2979    3.9327   26.2378 C   0  0  0  0  0  0  0  0  0  0  0  0
   -9.7894    5.2123   26.4395 C   0  0  0  0  0  0  0  0  0  0  0  0
   -7.3451    1.8185   27.1796 C   0  0  0  0  0  0  0  0  0  0  0  0
   -7.7232    0.5262   26.9339 C   0  0  0  0  0  0  0  0  0  0  0  0
   -9.0272    0.3427   26.4658 C   0  0  0  0  0  0  0  0  0  0  0  0
   -9.9039    1.4374   26.2448 C   0  0  0  0  0  0  0  0  0  0  0  0
   -6.9097    6.8520   27.8844 N   0  0  0  0  0  0  0  0  0  0  0  0
   -8.5392    7.9012   26.5939 C   0  0  0  0  0  0  0  0  0  0  0  0
   -6.0908    2.0602   27.6873 O   0  0  0  0  0  0  0  0  0  0  0  0
   -5.2476    1.0208   27.9506 C   0  0  0  0  0  0  0  0  0  0  0  0
   -5.3714   -0.0017   28.1985 C   0  0  0  0  0  0  0  0  0  0  0  0
   -6.5154   -0.5799   28.0136 C   0  0  0  0  0  0  0  0  0  0  0  0
   -7.1768   -1.8667   28.0621 C   0  0  0  0  0  0  0  0  0  0  0  0
  3  4  1  0
  4 12  1  0
  4 13  1  6
  8 14  1  0
 14 15  1  0
 15 16  2  3
 16 17  1  0
 17 18  1  0
  5 11  1  0
 11 10  2  0
 10  9  1  0
  9  8  2  0
  8  2  1  0
  1  2  2  0
  2  5  1  0
  5  6  2  0
  6  7  1  0
  7  3  2  0
  3  1  1  0
M  END
$$$$
