No_4326-complexes_sdf/6BKW-FPZ/2024-09-17-14-21-01/
     RDKit          3D

 16 18  0  0  0  0  0  0  0  0999 V2000
   -7.9040    3.9820   27.1177 C   0  0  0  0  0  0  0  0  0  0  0  0
   -7.8663    4.8694   27.9238 C   0  0  0  0  0  0  0  0  0  0  0  0
   -9.0501    3.8017   26.2617 C   0  0  0  0  0  0  0  0  0  0  0  0
   -9.1826    2.7026   25.3575 C   0  0  0  0  0  0  0  0  0  0  0  0
   -8.6940    6.0131   27.8614 C   0  0  0  0  0  0  0  0  0  0  0  0
   -9.9755    4.8547   26.2361 C   0  0  0  0  0  0  0  0  0  0  0  0
   -9.7463    5.9398   27.0365 C   0  0  0  0  0  0  0  0  0  0  0  0
   -8.6982    1.5568   25.7278 N   0  0  0  0  0  0  0  0  0  0  0  0
   -8.5665    0.5033   24.9091 C   0  0  0  0  0  0  0  0  0  0  0  0
   -9.9931    2.7529   24.4470 O   0  0  0  0  0  0  0  0  0  0  0  0
   -7.5937   -0.4259   25.2047 C   0  0  0  0  0  0  0  0  0  0  0  0
   -6.9189   -0.3239   26.4167 C   0  0  0  0  0  0  0  0  0  0  0  0
   -7.1738    0.7787   27.3251 C   0  0  0  0  0  0  0  0  0  0  0  0
   -7.9091    1.6601   26.9328 C   0  0  1  0  0  0  0  0  0  0  0  0
   -7.7321    2.8487   27.5551 N   0  0  0  0  0  0  0  0  0  0  0  0
   -9.1291    0.5108   23.7960 O   0  0  0  0  0  0  0  0  0  0  0  0
  3  4  1  0
  4  8  1  0
  8  9  1  0
  4 10  2  0
  9 11  1  0
 12 13  1  0
  8 14  1  0
  1 15  1  0
 14 15  1  0
  9 16  2  0
 11 12  1  0
 14 13  1  6
  1  2  2  0
  2  5  1  0
  5  7  2  0
  7  6  1  0
  6  3  2  0
  3  1  1  0
M  END
$$$$
