No_4223-complexes_sdf/6BKW-FPZ/2024-09-17-14-21-01/
     RDKit          3D

 40 45  0  0  0  0  0  0  0  0999 V2000
   -7.9040    3.9820   27.1177 C   0  0  0  0  0  0  0  0  0  0  0  0
   -7.8663    4.8694   27.9238 C   0  0  0  0  0  0  0  0  0  0  0  0
   -9.0491    3.8523   26.2542 C   0  0  0  0  0  0  0  0  0  0  0  0
   -8.7661    5.9491   27.9690 C   0  0  0  0  0  0  0  0  0  0  0  0
   -9.9295    4.8502   26.2323 C   0  0  0  0  0  0  0  0  0  0  0  0
   -9.8077    5.9288   27.0933 C   0  0  0  0  0  0  0  0  0  0  0  0
   -6.8002    2.6256   27.2024 Cl  0  0  0  0  0  0  0  0  0  0  0  0
   -9.0815    2.8240   25.3662 F   0  0  0  0  0  0  0  0  0  0  0  0
  -10.8957    4.8227   25.3016 O   0  0  0  0  0  0  0  0  0  0  0  0
  -11.8722    3.9891   25.4528 C   0  0  0  0  0  0  0  0  0  0  0  0
  -12.4292    3.7944   26.4454 C   0  0  0  0  0  0  0  0  0  0  0  0
  -12.1059    4.4638   27.7327 C   0  0  0  0  0  0  0  0  0  0  0  0
  -12.9250    4.2024   28.9260 C   0  0  0  0  0  0  0  0  0  0  0  0
  -14.0345    3.3544   28.8605 C   0  0  0  0  0  0  0  0  0  0  0  0
  -14.7310    3.0641   30.0137 C   0  0  0  0  0  0  0  0  0  0  0  0
  -13.7004    3.0439   26.5655 C   0  0  0  0  0  0  0  0  0  0  0  0
  -14.3688    2.7778   27.7229 C   0  0  0  0  0  0  0  0  0  0  0  0
  -14.5259    3.7961   31.1726 C   0  0  0  0  0  0  0  0  0  0  0  0
  -15.6130    1.9614   30.1359 C   0  0  0  0  0  0  0  0  0  0  0  0
  -14.8587    3.6059   32.4172 C   0  0  0  0  0  0  0  0  0  0  0  0
  -16.1595    1.6843   31.4719 C   0  0  0  0  0  0  0  0  0  0  0  0
  -15.8396    2.5106   32.5615 C   0  0  0  0  0  0  0  0  0  0  0  0
  -12.3225    3.4949   24.1267 C   0  0  0  0  0  0  0  0  0  0  0  0
  -11.6705    3.6013   23.0257 C   0  0  0  0  0  0  0  0  0  0  0  0
  -12.0722    3.2038   21.7811 C   0  0  0  0  0  0  0  0  0  0  0  0
  -11.2353    3.2805   20.6220 C   0  0  0  0  0  0  0  0  0  0  0  0
   -9.8797    3.7630   20.7744 C   0  0  0  0  0  0  0  0  0  0  0  0
   -9.5448    4.2244   22.0716 C   0  0  0  0  0  0  0  0  0  0  0  0
  -10.2959    4.1600   23.0868 C   0  0  0  0  0  0  0  0  0  0  0  0
  -13.0270    2.1523   24.1831 C   0  0  0  0  0  0  0  0  0  0  0  0
  -14.0403    2.1616   25.3682 C   0  0  0  0  0  0  0  0  0  0  0  0
  -15.0594    1.3082   25.3709 C   0  0  0  0  0  0  0  0  0  0  0  0
  -15.0349    0.2598   25.8261 N   0  0  0  0  0  0  0  0  0  0  0  0
  -14.0523   -0.4630   26.1461 C   0  0  0  0  0  0  0  0  0  0  0  0
  -14.2538   -1.7549   26.8580 C   0  0  0  0  0  0  0  0  0  0  0  0
  -16.0301    1.8194   24.6334 O   0  0  0  0  0  0  0  0  0  0  0  0
  -13.3391   -2.3064   27.5420 C   0  0  0  0  0  0  0  0  0  0  0  0
  -11.9927   -1.8478   27.5481 C   0  0  0  0  0  0  0  0  0  0  0  0
  -11.7155   -0.6035   26.9320 C   0  0  0  0  0  0  0  0  0  0  0  0
  -12.7226    0.0420   26.3690 C   0  0  0  0  0  0  0  0  0  0  0  0
  1  7  1  0
  3  8  1  0
  5  9  1  0
  9 10  1  0
 14 15  1  0
 23 24  1  0
 31 32  1  0
 32 33  1  0
 33 34  1  0
 32 36  2  0
 24 25  2  0
 25 26  1  0
 26 27  2  0
 27 28  1  0
 28 29  2  0
 29 24  1  0
 34 35  2  0
 35 37  1  0
 37 38  2  0
 38 39  1  0
 39 40  2  0
 40 34  1  0
 11 12  2  0
 12 13  1  0
 13 14  2  0
 14 17  1  0
 17 16  2  0
 15 18  2  0
 18 20  1  0
 20 22  2  0
 22 21  1  0
 21 19  2  0
 19 15  1  0
  1  2  2  0
  2  4  1  0
  4  6  2  0
  6  5  1  0
  5  3  2  0
  3  1  1  0
 10 11  1  0
 11 16  1  0
 16 31  1  0
 31 30  2  0
 30 23  1  0
 23 10  2  0
M  END
$$$$
