No_4704-complexes_sdf/6BKW-FPZ/2024-09-17-14-21-01/
     RDKit          3D

 40 45  0  0  0  0  0  0  0  0999 V2000
   -7.7129    4.2099   27.0854 C   0  0  0  0  0  0  0  0  0  0  0  0
   -8.2112    3.0637   26.9225 C   0  0  0  0  0  0  0  0  0  0  0  0
   -9.4446    2.8304   26.1868 C   0  0  0  0  0  0  0  0  0  0  0  0
   -6.6388    4.5347   28.1122 C   0  0  0  0  0  0  0  0  0  0  0  0
   -9.9448    3.9173   25.5585 C   0  0  0  0  0  0  0  0  0  0  0  0
   -9.3660    5.1901   25.7094 C   0  0  0  0  0  0  0  0  0  0  0  0
   -8.3659    5.4005   26.5436 C   0  0  0  0  0  0  0  0  0  0  0  0
  -11.1201    3.7822   24.6455 C   0  0  0  0  0  0  0  0  0  0  0  0
  -11.0081    4.0530   23.3053 C   0  0  0  0  0  0  0  0  0  0  0  0
  -12.0797    3.9188   22.4046 C   0  0  0  0  0  0  0  0  0  0  0  0
  -13.3197    3.5430   22.9129 C   0  0  0  0  0  0  0  0  0  0  0  0
  -12.4028    3.4366   25.0519 C   0  0  0  0  0  0  0  0  0  0  0  0
  -12.5261    3.2005   26.5279 C   0  0  0  0  0  0  0  0  0  0  0  0
  -13.4842    3.3910   24.2058 C   0  0  0  0  0  0  0  0  0  0  0  0
  -13.6300    3.5337   27.1631 C   0  0  0  0  0  0  0  0  0  0  0  0
  -13.7795    3.3059   28.5912 C   0  0  0  0  0  0  0  0  0  0  0  0
  -12.6814    2.7216   29.2768 C   0  0  0  0  0  0  0  0  0  0  0  0
  -11.5266    2.3965   28.5987 C   0  0  0  0  0  0  0  0  0  0  0  0
  -11.4221    2.6436   27.2376 C   0  0  0  0  0  0  0  0  0  0  0  0
  -10.0607    2.6064   26.9582 N   0  0  0  0  0  0  0  0  0  0  0  0
   -9.4644    1.5480   27.9469 C   0  0  0  0  0  0  0  0  0  0  0  0
  -10.4832    1.6906   29.0649 N   0  0  0  0  0  0  0  0  0  0  0  0
  -15.0449    3.6156   29.2653 C   0  0  0  0  0  0  0  0  0  0  0  0
  -15.7141    4.4884   28.8527 C   0  0  0  0  0  0  0  0  0  0  0  0
  -16.8221    5.0316   29.6047 C   0  0  0  0  0  0  0  0  0  0  0  0
  -17.1122    4.5022   30.8526 C   0  0  0  0  0  0  0  0  0  0  0  0
  -16.2701    3.5199   31.3229 C   0  0  0  0  0  0  0  0  0  0  0  0
  -15.1545    3.1204   30.6418 C   0  0  0  0  0  0  0  0  0  0  0  0
  -17.7064    6.1068   28.9878 C   0  0  2  0  0  0  0  0  0  0  0  0
  -18.1079    6.3331   27.6038 Cl  0  0  0  0  0  0  0  0  0  0  0  0
  -17.9885    7.2243   30.0343 C   0  0  0  0  0  0  0  0  0  0  0  0
  -17.1477    8.2783   29.8219 C   0  0  0  0  0  0  0  0  0  0  0  0
  -17.5715    9.4274   30.0631 O   0  0  0  0  0  0  0  0  0  0  0  0
  -15.9510    8.1902   29.1905 O   0  0  0  0  0  0  0  0  0  0  0  0
  -16.4802    2.9577   32.7140 C   0  0  0  0  0  0  0  0  0  0  0  0
  -16.8521    3.4340   33.6221 N   0  0  0  0  0  0  0  0  0  0  0  0
  -16.0935    1.7052   32.7957 O   0  0  0  0  0  0  0  0  0  0  0  0
  -17.0722    2.9001   34.9823 C   0  0  0  0  0  0  0  0  0  0  0  0
  -17.6142    3.8110   35.8840 C   0  0  0  0  0  0  0  0  0  0  0  0
  -17.9843    4.7950   35.6712 N   0  0  0  0  0  0  0  0  0  0  0  0
  1  4  1  0
  5  8  1  0
 12 13  1  0
  3 20  1  0
 19 20  1  0
 20 21  1  0
 18 22  1  0
 21 22  1  0
 16 23  1  0
 25 29  1  0
 29 30  1  6
 29 31  1  0
 31 32  1  0
 32 33  2  0
 32 34  1  0
 27 35  1  0
 35 36  1  0
 35 37  2  0
 36 38  1  0
 38 39  1  0
 39 40  2  0
 23 24  2  0
 24 25  1  0
 25 26  2  0
 26 27  1  0
 27 28  2  0
 28 23  1  0
  8  9  2  0
  9 10  1  0
 10 11  2  0
 11 14  1  0
 14 12  2  0
 12  8  1  0
 13 15  2  0
 15 16  1  0
 16 17  2  0
 17 18  1  0
 18 19  2  0
 19 13  1  0
  1  2  2  0
  2  3  1  0
  3  5  2  0
  5  6  1  0
  6  7  2  0
  7  1  1  0
M  END
$$$$
