No_4471-complexes_sdf/6BKW-FPZ/2024-09-17-14-21-01/
     RDKit          3D

 31 33  0  0  0  0  0  0  0  0999 V2000
   -7.9040    3.9820   27.1177 C   0  0  0  0  0  0  0  0  0  0  0  0
   -7.8663    4.8694   27.9238 C   0  0  0  0  0  0  0  0  0  0  0  0
   -9.0491    3.8523   26.2542 C   0  0  0  0  0  0  0  0  0  0  0  0
   -8.7661    5.9491   27.9690 C   0  0  0  0  0  0  0  0  0  0  0  0
   -9.9295    4.8502   26.2323 C   0  0  0  0  0  0  0  0  0  0  0  0
   -9.8077    5.9288   27.0933 C   0  0  0  0  0  0  0  0  0  0  0  0
   -6.9996    2.9096   27.1565 O   0  0  0  0  0  0  0  0  0  0  0  0
   -7.3398    1.5998   26.9303 C   0  0  0  0  0  0  0  0  0  0  0  0
   -8.4690    1.2494   26.3568 C   0  0  0  0  0  0  0  0  0  0  0  0
   -9.3812    2.4153   25.9288 C   0  0  2  0  0  0  0  0  0  0  0  0
   -6.3647    0.6205   27.4031 C   0  0  0  0  0  0  0  0  0  0  0  0
   -5.5973    0.1648   26.8933 C   0  0  0  0  0  0  0  0  0  0  0  0
   -4.5089   -0.7635   27.3676 C   0  0  0  0  0  0  0  0  0  0  0  0
   -3.4214   -1.1691   26.6157 C   0  0  0  0  0  0  0  0  0  0  0  0
   -3.8102   -1.4477   25.2759 C   0  0  0  0  0  0  0  0  0  0  0  0
   -4.9222   -0.7885   24.7217 C   0  0  0  0  0  0  0  0  0  0  0  0
   -5.8250   -0.1726   25.4356 C   0  0  0  0  0  0  0  0  0  0  0  0
  -10.5187    2.1239   25.1281 C   0  0  0  0  0  0  0  0  0  0  0  0
  -10.5431    1.3781   24.3400 O   0  0  0  0  0  0  0  0  0  0  0  0
  -11.6408    2.8979   25.3699 N   0  0  0  0  0  0  0  0  0  0  0  0
  -12.8396    2.7019   24.5825 C   0  0  0  0  0  0  0  0  0  0  0  0
   -4.0878   -0.4743   28.8605 C   0  0  0  0  0  0  0  0  0  0  0  0
   -4.9508   -1.1925   29.7726 C   0  0  0  0  0  0  0  0  0  0  0  0
   -4.3094   -1.9750   30.6088 C   0  0  0  0  0  0  0  0  0  0  0  0
   -3.1722   -1.4466   31.2583 C   0  0  0  0  0  0  0  0  0  0  0  0
   -2.5675   -2.1044   32.3105 C   0  0  0  0  0  0  0  0  0  0  0  0
   -3.8919    0.9836   29.2658 C   0  0  0  0  0  0  0  0  0  0  0  0
   -1.4926   -1.4213   33.0106 C   0  0  0  0  0  0  0  0  0  0  0  0
   -1.8945   -0.2220   33.7102 C   0  0  0  0  0  0  0  0  0  0  0  0
   -2.4770    0.6816   32.8015 O   0  0  0  0  0  0  0  0  0  0  0  0
   -2.6770   -1.2193   29.0241 C   0  0  0  0  0  0  0  0  0  0  0  0
  1  7  1  0
  7  8  1  0
  8  9  1  0
  3 10  1  0
  9 10  1  0
  8 11  1  0
 10 18  1  6
 18 19  2  0
 18 20  1  0
 20 21  1  0
 13 22  1  0
 22 23  1  0
 23 24  1  0
 24 25  1  0
 25 26  2  3
 22 27  1  0
 26 28  1  0
 28 29  1  0
 29 30  1  0
 22 31  1  0
 11 12  1  0
 12 13  2  0
 13 14  1  0
 14 15  2  0
 15 16  1  0
 16 17  2  0
 17 12  1  0
  1  2  2  0
  2  4  1  0
  4  6  2  0
  6  5  1  0
  5  3  2  0
  3  1  1  0
M  END
$$$$
