No_4619-complexes_sdf/6BKW-FPZ/2024-09-17-14-21-01/
     RDKit          3D

 15 16  0  0  0  0  0  0  0  0999 V2000
   -7.7129    4.2099   27.0854 C   0  0  0  0  0  0  0  0  0  0  0  0
   -7.7814    5.1722   27.8972 C   0  0  0  0  0  0  0  0  0  0  0  0
   -7.2983    2.9533   27.5684 C   0  0  0  0  0  0  0  0  0  0  0  0
   -7.6908    1.8111   26.9553 C   0  0  0  0  0  0  0  0  0  0  0  0
   -8.6533    1.9165   25.9430 C   0  0  0  0  0  0  0  0  0  0  0  0
   -9.2376    3.0581   25.6387 C   0  0  0  0  0  0  0  0  0  0  0  0
   -8.8901    4.1760   26.2867 C   0  0  0  0  0  0  0  0  0  0  0  0
   -8.3894    6.3916   27.5666 N   0  0  0  0  0  0  0  0  0  0  0  0
   -7.0671    0.5323   27.2925 C   0  0  0  0  0  0  0  0  0  0  0  0
   -5.8259    0.4848   27.9365 C   0  0  0  0  0  0  0  0  0  0  0  0
   -4.9799    1.6316   28.1534 C   0  0  0  0  0  0  0  0  0  0  0  0
   -5.5390   -0.7308   28.6695 C   0  0  0  0  0  0  0  0  0  0  0  0
   -4.3218   -0.7780   29.3056 C   0  0  0  0  0  0  0  0  0  0  0  0
   -3.7479    1.4067   28.8443 C   0  0  0  0  0  0  0  0  0  0  0  0
   -3.4681    0.2606   29.4396 C   0  0  0  0  0  0  0  0  0  0  0  0
  2  8  1  0
  4  9  1  0
  9 10  1  0
  2  1  1  0
 10 11  2  0
 11 14  1  0
 14 15  2  0
 15 13  1  0
 13 12  2  0
 12 10  1  0
  1  3  2  0
  3  4  1  0
  4  5  2  0
  5  6  1  0
  6  7  2  0
  7  1  1  0
M  END
$$$$
