No_4957-complexes_sdf/6BKW-FPZ/2024-09-17-14-21-01/
     RDKit          3D

 15 17  0  0  0  0  0  0  0  0999 V2000
   -7.7129    4.2099   27.0854 C   0  0  0  0  0  0  0  0  0  0  0  0
   -8.2112    3.0637   26.9225 C   0  0  0  0  0  0  0  0  0  0  0  0
   -8.4224    5.2106   27.8516 C   0  0  0  0  0  0  0  0  0  0  0  0
   -9.5628    2.7160   27.4089 C   0  0  0  0  0  0  0  0  0  0  0  0
  -10.2428    3.7496   28.1155 C   0  0  0  0  0  0  0  0  0  0  0  0
   -9.6677    4.9738   28.3232 C   0  0  0  0  0  0  0  0  0  0  0  0
  -11.5762    3.2789   28.5337 C   0  0  0  0  0  0  0  0  0  0  0  0
  -11.9517    2.0135   28.6785 C   0  0  0  0  0  0  0  0  0  0  0  0
  -13.1913    1.6985   29.1207 C   0  0  0  0  0  0  0  0  0  0  0  0
  -13.5578    0.3155   29.2249 C   0  0  0  0  0  0  0  0  0  0  0  0
  -12.5910   -0.6219   28.7769 C   0  0  0  0  0  0  0  0  0  0  0  0
  -11.3674   -0.2927   28.3059 C   0  0  0  0  0  0  0  0  0  0  0  0
  -11.0023    1.0845   28.2921 C   0  0  0  0  0  0  0  0  0  0  0  0
   -9.9483    1.3656   27.5514 C   0  0  0  0  0  0  0  0  0  0  0  0
   -7.8742    6.4107   27.9713 F   0  0  0  0  0  0  0  0  0  0  0  0
  3 15  1  0
  1  2  2  0
  2  4  1  0
  5  6  1  0
  6  3  2  0
  3  1  1  0
  4  5  2  0
  5  7  1  0
  7  8  2  0
 13 14  2  0
 14  4  1  0
  8  9  1  0
  9 10  2  0
 10 11  1  0
 11 12  2  0
 12 13  1  0
 13  8  1  0
M  END
$$$$
