No_4872-complexes_sdf/6BKW-FPZ/2024-09-17-14-21-01/
     RDKit          3D

 23 26  0  0  0  0  0  0  0  0999 V2000
   -7.7129    4.2099   27.0854 C   0  0  0  0  0  0  0  0  0  0  0  0
   -7.7814    5.1722   27.8972 C   0  0  0  0  0  0  0  0  0  0  0  0
   -8.8998    3.8713   26.3707 C   0  0  0  0  0  0  0  0  0  0  0  0
   -9.9938    4.6774   26.5446 C   0  0  0  0  0  0  0  0  0  0  0  0
   -8.7789    6.1536   27.9256 C   0  0  0  0  0  0  0  0  0  0  0  0
   -9.9428    5.8398   27.2296 C   0  0  0  0  0  0  0  0  0  0  0  0
   -8.9119    2.6447   25.5685 C   0  0  0  0  0  0  0  0  0  0  0  0
   -9.7965    2.5353   24.5160 C   0  0  1  0  0  0  0  0  0  0  0  0
  -10.6100    3.6509   24.2901 C   0  0  0  0  0  0  0  0  0  0  0  0
  -10.9331    4.5913   25.4203 N   0  0  0  0  0  0  0  0  0  0  0  0
   -9.7585    1.4902   23.5959 C   0  0  0  0  0  0  0  0  0  0  0  0
  -10.2985    1.6002   22.3108 C   0  0  0  0  0  0  0  0  0  0  0  0
  -10.2386    0.5177   21.4105 C   0  0  0  0  0  0  0  0  0  0  0  0
   -9.5362   -0.6384   21.7662 C   0  0  0  0  0  0  0  0  0  0  0  0
   -8.8932   -0.7350   22.9837 C   0  0  0  0  0  0  0  0  0  0  0  0
   -8.9192    0.3716   24.0345 C   0  0  0  0  0  0  0  0  0  0  0  0
  -11.2734    3.8212   23.3120 O   0  0  0  0  0  0  0  0  0  0  0  0
   -9.4419   -1.7341   20.8131 C   0  0  0  0  0  0  0  0  0  0  0  0
  -10.2245   -1.7986   19.7339 C   0  0  0  0  0  0  0  0  0  0  0  0
  -10.1300   -2.8501   18.8442 C   0  0  0  0  0  0  0  0  0  0  0  0
   -9.1045   -3.7873   19.0280 C   0  0  0  0  0  0  0  0  0  0  0  0
   -8.2341   -3.6885   20.0557 C   0  0  0  0  0  0  0  0  0  0  0  0
   -8.3330   -2.6672   20.9790 C   0  0  0  0  0  0  0  0  0  0  0  0
  3  7  1  0
  8  9  1  0
  4 10  1  0
  9 10  1  0
  8 11  1  6
  9 17  2  0
 14 18  1  0
  8  7  1  0
 11 12  2  0
 12 13  1  0
 13 14  2  0
 14 15  1  0
 15 16  2  0
 16 11  1  0
 18 19  2  0
 19 20  1  0
 20 21  2  0
 21 22  1  0
 22 23  2  0
 23 18  1  0
  1  2  2  0
  2  5  1  0
  5  6  2  0
  6  4  1  0
  4  3  2  0
  3  1  1  0
M  END
$$$$
