No_484-complexes_sdf/6BKW-FPZ/2024-09-17-14-21-01/
     RDKit          3D

 38 42  0  0  0  0  0  0  0  0999 V2000
   -7.9040    3.9820   27.1177 C   0  0  0  0  0  0  0  0  0  0  0  0
   -8.2057    2.8231   26.8733 C   0  0  0  0  0  0  0  0  0  0  0  0
   -9.2962    2.4021   26.1155 C   0  0  0  0  0  0  0  0  0  0  0  0
   -8.7358    5.0662   26.5917 C   0  0  0  0  0  0  0  0  0  0  0  0
   -9.7618    4.7023   25.7546 C   0  0  0  0  0  0  0  0  0  0  0  0
  -10.0066    3.4105   25.4922 C   0  0  0  0  0  0  0  0  0  0  0  0
   -8.3466    6.7110   26.9171 Cl  0  0  0  0  0  0  0  0  0  0  0  0
   -9.5261    0.9772   25.8277 C   0  0  0  0  0  0  0  0  0  0  0  0
   -8.9095    0.3388   25.0024 C   0  0  0  0  0  0  0  0  0  0  0  0
   -9.0999   -1.0704   24.7309 C   0  0  0  0  0  0  0  0  0  0  0  0
  -10.0280   -1.7291   25.5273 C   0  0  0  0  0  0  0  0  0  0  0  0
  -10.4121    0.2192   26.6729 C   0  0  0  0  0  0  0  0  0  0  0  0
  -10.6637   -1.0719   26.5763 C   0  0  0  0  0  0  0  0  0  0  0  0
   -7.1963    1.9862   27.5898 N   0  0  0  0  0  0  0  0  0  0  0  0
   -5.8769    2.1623   27.5712 C   0  0  0  0  0  0  0  0  0  0  0  0
   -5.1239    1.0700   28.3070 C   0  0  0  0  0  0  0  0  0  0  0  0
   -5.6256   -0.0061   28.7567 C   0  0  0  0  0  0  0  0  0  0  0  0
   -6.9902   -0.3285   28.3418 C   0  0  0  0  0  0  0  0  0  0  0  0
   -7.7638    0.6344   27.7273 C   0  0  0  0  0  0  0  0  0  0  0  0
   -4.7603   -1.0478   29.3531 C   0  0  0  0  0  0  0  0  0  0  0  0
   -5.0087   -1.3384   30.5723 C   0  0  0  0  0  0  0  0  0  0  0  0
   -4.2102   -2.2002   31.3707 C   0  0  0  0  0  0  0  0  0  0  0  0
   -3.0874   -2.7498   30.6733 C   0  0  0  0  0  0  0  0  0  0  0  0
   -3.6024   -1.5107   28.7985 C   0  0  0  0  0  0  0  0  0  0  0  0
   -2.7691   -2.3810   29.4162 C   0  0  0  0  0  0  0  0  0  0  0  0
   -3.1378   -0.9648   27.0288 Br  0  0  0  0  0  0  0  0  0  0  0  0
   -4.5668   -2.5488   32.7779 C   0  0  0  0  0  0  0  0  0  0  0  0
   -4.0501   -1.7742   33.7649 C   0  0  0  0  0  0  0  0  0  0  0  0
   -3.3849   -0.8041   33.6768 C   0  0  0  0  0  0  0  0  0  0  0  0
   -2.8738   -0.3866   32.3943 C   0  0  0  0  0  0  0  0  0  0  0  0
   -5.9497   -3.0272   32.8279 C   0  0  0  0  0  0  0  0  0  0  0  0
   -6.1334   -3.9401   33.8413 C   0  0  0  0  0  0  0  0  0  0  0  0
   -5.6035   -3.4239   35.1423 C   0  0  0  0  0  0  0  0  0  0  0  0
   -4.5785   -2.3015   35.1796 C   0  0  0  0  0  0  0  0  0  0  0  0
   -2.0933   -3.5615   31.4709 C   0  0  0  0  0  0  0  0  0  0  0  0
   -2.3655   -4.8300   31.7691 C   0  0  0  0  0  0  0  0  0  0  0  0
   -2.9246   -5.6893   30.9085 C   0  0  0  0  0  0  0  0  0  0  0  0
   -3.2605   -7.0299   31.2721 C   0  0  0  0  0  0  0  0  0  0  0  0
  4  7  1  0
  3  8  1  0
  2 14  1  0
 14 15  1  0
 16 17  1  0
 14 19  1  0
 18 19  1  0
 17 20  1  0
 24 26  1  0
 22 27  1  0
 29 30  1  0
 23 35  1  0
 35 36  1  0
 36 37  2  3
 37 38  1  0
 29 28  1  0
 15 16  1  0
 17 18  1  0
 27 28  2  0
 28 34  1  0
 34 33  2  0
 33 32  1  0
 32 31  2  0
 31 27  1  0
  1  2  2  0
  2  3  1  0
  3  6  2  0
  6  5  1  0
  5  4  2  0
  4  1  1  0
 20 21  2  0
 21 22  1  0
 22 23  2  0
 23 25  1  0
 25 24  2  0
 24 20  1  0
  8  9  2  0
  9 10  1  0
 10 11  2  0
 11 13  1  0
 13 12  2  0
 12  8  1  0
M  END
$$$$
