No_448-complexes_sdf/6BKW-FPZ/2024-09-17-14-21-01/
     RDKit          3D

 38 45  0  0  0  0  0  0  0  0999 V2000
   -7.2496    3.8871   27.4508 C   0  0  0  0  0  0  0  0  0  0  0  0
   -8.5096    4.0291   27.2770 C   0  0  0  0  0  0  0  0  0  0  0  0
   -9.2677    5.1714   27.5773 C   0  0  1  0  0  0  0  0  0  0  0  0
   -6.5711    2.6400   27.2842 C   0  0  0  0  0  0  0  0  0  0  0  0
   -7.2939    1.5094   27.0532 C   0  0  0  0  0  0  0  0  0  0  0  0
   -8.6122    1.6580   26.7575 C   0  0  0  0  0  0  0  0  0  0  0  0
   -9.2984    2.8495   26.9904 C   0  0  0  0  0  0  0  0  0  0  0  0
   -9.2233    6.1510   26.7449 C   0  0  1  0  0  0  0  0  0  0  0  0
   -6.4600    0.0528   26.8646 Cl  0  0  0  0  0  0  0  0  0  0  0  0
   -8.6198    7.4470   27.1443 C   0  0  0  0  0  0  0  0  0  0  0  0
   -9.4507    6.0933   25.6439 C   0  0  0  0  0  0  0  0  0  0  0  0
   -9.9439    4.8386   25.0180 C   0  0  0  0  0  0  0  0  0  0  0  0
  -10.9418    4.9222   24.0326 C   0  0  0  0  0  0  0  0  0  0  0  0
  -11.3983    3.6947   23.4138 C   0  0  0  0  0  0  0  0  0  0  0  0
  -12.5013    3.5318   23.0688 C   0  0  0  0  0  0  0  0  0  0  0  0
  -12.9707    2.2580   22.5679 C   0  0  0  0  0  0  0  0  0  0  0  0
  -12.0266    1.2796   22.3852 C   0  0  0  0  0  0  0  0  0  0  0  0
  -10.6972    1.4479   22.7000 C   0  0  0  0  0  0  0  0  0  0  0  0
  -10.3197    2.6592   23.2902 C   0  0  0  0  0  0  0  0  0  0  0  0
   -9.4055    0.4354   26.3901 C   0  0  0  0  0  0  0  0  0  0  0  0
  -10.7349    0.4739   26.6841 C   0  0  0  0  0  0  0  0  0  0  0  0
  -11.2640   -0.2861   27.2579 C   0  0  0  0  0  0  0  0  0  0  0  0
  -12.6675   -0.1954   27.7405 C   0  0  0  0  0  0  0  0  0  0  0  0
  -13.3717    0.9125   27.2601 C   0  0  0  0  0  0  0  0  0  0  0  0
  -12.7680    1.8414   26.4757 C   0  0  0  0  0  0  0  0  0  0  0  0
  -11.4308    1.7269   26.1857 C   0  0  0  0  0  0  0  0  0  0  0  0
   -9.7024    0.3888   22.5666 C   0  0  0  0  0  0  0  0  0  0  0  0
   -8.4461    0.5804   23.1432 C   0  0  0  0  0  0  0  0  0  0  0  0
   -9.9994   -0.7333   21.8174 C   0  0  0  0  0  0  0  0  0  0  0  0
   -9.0603   -1.6481   21.5823 C   0  0  0  0  0  0  0  0  0  0  0  0
   -7.3820   -0.3908   22.9012 C   0  0  0  0  0  0  0  0  0  0  0  0
   -6.0535   -0.3600   23.5463 C   0  0  0  0  0  0  0  0  0  0  0  0
   -7.7263   -1.5009   22.1321 C   0  0  0  0  0  0  0  0  0  0  0  0
  -10.7766    2.1360   25.3967 C   0  0  0  0  0  0  0  0  0  0  0  0
  -10.0392    3.3757   25.8694 C   0  0  1  0  0  0  0  0  0  0  0  0
  -10.6304    1.7939   24.3145 O   0  0  0  0  0  0  0  0  0  0  0  0
  -10.8898    3.9385   26.4070 C   0  0  0  0  0  0  0  0  0  0  0  0
  -10.7378    4.8450   27.4593 C   0  0  0  0  0  0  0  0  0  0  0  0
  3  8  1  0
  5  9  1  0
  8 10  1  6
  8 11  1  0
 11 12  1  0
 12 13  2  0
 13 14  1  0
  6 20  1  0
 20 21  1  0
 18 27  1  0
 31 32  1  0
 26 34  1  0
  7 35  1  0
 12 35  1  0
 34 35  1  0
 19 36  1  0
 34 36  1  0
 35 37  1  1
  3 38  1  6
 37 38  3  0
  2  3  1  0
 27 28  2  0
 28 31  1  0
 31 33  2  0
 33 30  1  0
 30 29  2  0
 29 27  1  0
  1  2  2  0
  2  7  1  0
  7  6  2  0
  6  5  1  0
  5  4  2  0
  4  1  1  0
 14 15  2  0
 15 16  1  0
 16 17  2  0
 17 18  1  0
 18 19  2  0
 19 14  1  0
 21 22  2  0
 22 23  1  0
 23 24  2  0
 24 25  1  0
 25 26  2  0
 26 21  1  0
M  END
$$$$
