No_4527-complexes_sdf/6BKW-FPZ/2024-09-17-14-21-01/
     RDKit          3D

 23 25  0  0  0  0  0  0  0  0999 V2000
   -7.9040    3.9820   27.1177 C   0  0  0  0  0  0  0  0  0  0  0  0
   -7.8663    4.8694   27.9238 C   0  0  0  0  0  0  0  0  0  0  0  0
   -9.0491    3.8523   26.2542 C   0  0  0  0  0  0  0  0  0  0  0  0
   -8.7661    5.9491   27.9690 C   0  0  0  0  0  0  0  0  0  0  0  0
   -9.9295    4.8502   26.2323 C   0  0  0  0  0  0  0  0  0  0  0  0
   -9.8077    5.9288   27.0933 C   0  0  0  0  0  0  0  0  0  0  0  0
   -6.9606    2.7994   27.1981 C   0  0  0  0  0  0  0  0  0  0  0  0
   -7.3659    1.5557   26.7971 N   0  0  0  0  0  0  0  0  0  0  0  0
   -5.8069    2.9094   27.7673 N   0  0  0  0  0  0  0  0  0  0  0  0
   -6.8105    0.4549   27.0585 C   0  0  0  0  0  0  0  0  0  0  0  0
   -5.0094    1.8117   28.0412 C   0  0  0  0  0  0  0  0  0  0  0  0
   -5.4856    0.5819   27.7066 C   0  0  0  0  0  0  0  0  0  0  0  0
   -4.7127   -0.6397   27.9682 C   0  0  0  0  0  0  0  0  0  0  0  0
   -4.1685   -0.7908   28.8381 O   0  0  0  0  0  0  0  0  0  0  0  0
   -4.5604   -1.4166   26.9038 O   0  0  0  0  0  0  0  0  0  0  0  0
  -10.9979    4.7740   25.2331 C   0  0  0  0  0  0  0  0  0  0  0  0
  -10.6512    4.7116   23.8850 C   0  0  0  0  0  0  0  0  0  0  0  0
  -11.5763    4.5779   22.8982 C   0  0  0  0  0  0  0  0  0  0  0  0
  -12.9224    4.4032   23.2592 C   0  0  0  0  0  0  0  0  0  0  0  0
  -13.2780    4.4178   24.6448 C   0  0  0  0  0  0  0  0  0  0  0  0
  -12.3016    4.5934   25.6111 C   0  0  0  0  0  0  0  0  0  0  0  0
  -11.2179    4.5532   21.6155 O   0  0  0  0  0  0  0  0  0  0  0  0
   -9.9830    4.1319   21.3069 C   0  0  0  0  0  0  0  0  0  0  0  0
  1  7  1  0
 12 13  1  0
 13 14  2  0
 13 15  1  0
  5 16  1  0
 18 22  1  0
 22 23  1  0
  1  2  2  0
  2  4  1  0
  4  6  2  0
  6  5  1  0
  5  3  2  0
  3  1  1  0
  7  8  2  0
  8 10  1  0
 10 12  2  0
 12 11  1  0
 11  9  2  0
  9  7  1  0
 16 17  2  0
 17 18  1  0
 18 19  2  0
 19 20  1  0
 20 21  2  0
 21 16  1  0
M  END
$$$$
