No_4468-complexes_sdf/6BKW-FPZ/2024-09-17-14-21-01/
     RDKit          3D

 13 14  0  0  0  0  0  0  0  0999 V2000
   -7.7129    4.2099   27.0854 C   0  0  0  0  0  0  0  0  0  0  0  0
   -7.7814    5.1722   27.8972 C   0  0  0  0  0  0  0  0  0  0  0  0
   -8.8998    3.8713   26.3707 C   0  0  0  0  0  0  0  0  0  0  0  0
   -8.9563    2.6796   25.5490 C   0  0  0  0  0  0  0  0  0  0  0  0
   -8.8131    6.1334   27.9344 C   0  0  0  0  0  0  0  0  0  0  0  0
   -9.9804    5.8121   27.1929 C   0  0  0  0  0  0  0  0  0  0  0  0
   -9.9861    4.6836   26.4532 C   0  0  0  0  0  0  0  0  0  0  0  0
   -8.3254    1.5773   26.0196 N   0  0  0  0  0  0  0  0  0  0  0  0
   -8.8015    0.5581   26.3368 C   0  0  0  0  0  0  0  0  0  0  0  0
   -7.9837   -0.4937   26.9599 C   0  0  0  0  0  0  0  0  0  0  0  0
   -6.6572   -0.1452   27.1979 C   0  0  0  0  0  0  0  0  0  0  0  0
   -6.1763    1.1578   27.0718 C   0  0  0  0  0  0  0  0  0  0  0  0
   -6.9797    2.0386   26.5112 C   0  0  0  0  0  0  0  0  0  0  0  0
  3  4  1  0
  4  8  1  0
  8  9  1  0
  9 10  1  0
 11 12  1  0
  8 13  1  0
 12 13  1  0
 10 11  1  0
  1  2  2  0
  2  5  1  0
  5  6  2  0
  6  7  1  0
  7  3  2  0
  3  1  1  0
M  END
$$$$
