No_4525-complexes_sdf/6BKW-FPZ/2024-09-17-14-21-01/
     RDKit          3D

 15 15  0  0  0  0  0  0  0  0999 V2000
   -7.9040    3.9820   27.1177 C   0  0  0  0  0  0  0  0  0  0  0  0
   -7.8663    4.8694   27.9238 C   0  0  0  0  0  0  0  0  0  0  0  0
   -9.0501    3.8017   26.2617 C   0  0  0  0  0  0  0  0  0  0  0  0
   -9.1826    2.7026   25.3575 C   0  0  0  0  0  0  0  0  0  0  0  0
   -8.6940    6.0131   27.8614 C   0  0  0  0  0  0  0  0  0  0  0  0
   -9.9755    4.8547   26.2361 C   0  0  0  0  0  0  0  0  0  0  0  0
   -9.7463    5.9398   27.0364 C   0  0  0  0  0  0  0  0  0  0  0  0
   -8.6902    1.5380   25.7265 N   0  0  0  0  0  0  0  0  0  0  0  0
   -9.2456    0.5758   26.0357 C   0  0  0  0  0  0  0  0  0  0  0  0
  -10.5804    0.5034   26.1080 C   0  0  0  0  0  0  0  0  0  0  0  0
   -8.4890   -0.6786   26.3880 C   0  0  0  0  0  0  0  0  0  0  0  0
   -7.1668   -0.5786   26.5287 C   0  0  0  0  0  0  0  0  0  0  0  0
   -6.3711   -1.5766   26.1525 C   0  0  0  0  0  0  0  0  0  0  0  0
  -11.3670    1.2815   25.8677 C   0  0  0  0  0  0  0  0  0  0  0  0
  -10.2395    2.5953   24.6628 O   0  0  0  0  0  0  0  0  0  0  0  0
  3  4  1  0
  4  8  1  0
  8  9  1  0
  9 10  1  0
  9 11  1  0
 11 12  1  0
 12 13  2  0
 10 14  1  0
  4 15  2  0
  1  2  2  0
  2  5  1  0
  5  7  2  0
  7  6  1  0
  6  3  2  0
  3  1  1  0
M  END
$$$$
