No_4734-complexes_sdf/6BKW-FPZ/2024-09-17-14-21-01/
     RDKit          3D

 40 42  0  0  0  0  0  0  0  0999 V2000
   -7.7129    4.2099   27.0854 C   0  0  0  0  0  0  0  0  0  0  0  0
   -8.9133    4.4736   27.0998 C   0  0  0  0  0  0  0  0  0  0  0  0
   -9.4643    5.5426   27.7628 C   0  0  0  0  0  0  0  0  0  0  0  0
   -9.8091    3.6358   26.2841 C   0  0  0  0  0  0  0  0  0  0  0  0
   -9.4101    2.5938   25.7918 C   0  0  0  0  0  0  0  0  0  0  0  0
   -7.2012    2.8508   26.8768 C   0  0  0  0  0  0  0  0  0  0  0  0
   -8.0866    2.0216   26.2188 C   0  0  0  0  0  0  0  0  0  0  0  0
   -7.4855    0.7531   25.8242 C   0  0  0  0  0  0  0  0  0  0  0  0
   -7.8727    0.2300   24.8149 O   0  0  0  0  0  0  0  0  0  0  0  0
   -6.7757    0.1093   26.6844 O   0  0  0  0  0  0  0  0  0  0  0  0
   -6.8443    4.9661   28.1544 C   0  0  0  0  0  0  0  0  0  0  0  0
   -6.0532   -0.9570   26.4752 C   0  0  0  0  0  0  0  0  0  0  0  0
   -4.7354   -0.9213   26.9368 C   0  0  0  0  0  0  0  0  0  0  0  0
   -4.2275    0.1736   27.1992 N   0  0  0  0  0  0  0  0  0  0  0  0
   -3.1006    0.6887   26.8518 C   0  0  0  0  0  0  0  0  0  0  0  0
   -4.1034    0.4256   28.7892 C   0  0  0  0  0  0  0  0  0  0  0  0
   -4.0362   -0.5045   29.7015 C   0  0  0  0  0  0  0  0  0  0  0  0
   -4.0548   -1.8370   29.3491 C   0  0  0  0  0  0  0  0  0  0  0  0
   -4.2704   -2.7129   30.4498 C   0  0  0  0  0  0  0  0  0  0  0  0
   -4.1485   -2.2437   31.7695 C   0  0  0  0  0  0  0  0  0  0  0  0
   -4.0263   -0.8856   32.0893 C   0  0  0  0  0  0  0  0  0  0  0  0
   -4.0336    0.0561   31.1086 C   0  0  0  0  0  0  0  0  0  0  0  0
   -3.9771   -0.4721   33.4266 N   0  0  0  0  0  0  0  0  0  0  0  0
   -3.4729   -1.2961   34.4570 C   0  0  0  0  0  0  0  0  0  0  0  0
   -3.4316   -1.2975   35.4950 C   0  0  0  0  0  0  0  0  0  0  0  0
   -3.8651   -0.1151   36.2665 C   0  0  0  0  0  0  0  0  0  0  0  0
   -4.0147   -0.0363   37.7246 C   0  0  0  0  0  0  0  0  0  0  0  0
   -4.4173    1.1988   38.2742 C   0  0  0  0  0  0  0  0  0  0  0  0
   -5.1468    1.2410   39.4345 C   0  0  0  0  0  0  0  0  0  0  0  0
   -6.2584    0.6134   39.7707 Cl  0  0  0  0  0  0  0  0  0  0  0  0
   -3.1693   -2.5100   33.9074 O   0  0  0  0  0  0  0  0  0  0  0  0
   -2.7280   -2.5447   36.7851 Br  0  0  0  0  0  0  0  0  0  0  0  0
   -4.6472    2.3805   40.3965 C   0  0  0  0  0  0  0  0  0  0  0  0
   -3.3647    2.6597   40.4480 C   0  0  0  0  0  0  0  0  0  0  0  0
   -2.6080    2.6503   39.1753 C   0  0  0  0  0  0  0  0  0  0  0  0
   -3.4802    2.2748   37.8989 C   0  0  0  0  0  0  0  0  0  0  0  0
   -1.5128    3.3437   38.9805 O   0  0  0  0  0  0  0  0  0  0  0  0
   -1.0956    4.2117   39.9057 C   0  0  0  0  0  0  0  0  0  0  0  0
   -0.6625    5.3071   39.5951 C   0  0  0  0  0  0  0  0  0  0  0  0
   -0.0662    5.6641   38.3948 C   0  0  0  0  0  0  0  0  0  0  0  0
  2  3  1  0
  7  8  1  0
  8  9  2  0
  8 10  1  0
  1 11  1  0
 10 12  1  0
 12 13  1  0
 13 14  1  0
 14 15  1  0
 14 16  1  0
 21 23  1  0
 23 24  1  0
 24 25  1  0
 25 26  2  3
 26 27  1  0
 27 28  1  0
 29 30  1  0
 24 31  2  0
 25 32  1  0
 35 37  1  0
 37 38  1  0
 38 39  1  0
 39 40  2  0
 16 17  1  0
  1  2  2  0
  2  4  1  0
  4  5  2  0
  5  7  1  0
  7  6  2  0
  6  1  1  0
 28 29  2  0
 29 33  1  0
 33 34  2  0
 34 35  1  0
 35 36  2  0
 36 28  1  0
 17 18  2  0
 18 19  1  0
 19 20  2  0
 20 21  1  0
 21 22  2  0
 22 17  1  0
M  END
$$$$
