No_4994-complexes_sdf/6BKW-FPZ/2024-09-17-14-21-01/
     RDKit          3D

 21 22  0  0  0  0  0  0  0  0999 V2000
   -7.7129    4.2099   27.0854 C   0  0  0  0  0  0  0  0  0  0  0  0
   -8.2112    3.0637   26.9225 C   0  0  2  0  0  0  0  0  0  0  0  0
   -7.0021    4.5281   28.2396 C   0  0  0  0  0  0  0  0  0  0  0  0
   -7.5497    1.9016   27.4549 C   0  0  0  0  0  0  0  0  0  0  0  0
   -8.0700    0.6173   27.2932 C   0  0  0  0  0  0  0  0  0  0  0  0
   -7.5026   -0.4661   27.9187 C   0  0  0  0  0  0  0  0  0  0  0  0
   -6.2089   -0.3261   28.3966 C   0  0  0  0  0  0  0  0  0  0  0  0
   -5.5555    0.9234   28.4077 C   0  0  0  0  0  0  0  0  0  0  0  0
   -6.1577    2.0106   27.8954 C   0  0  0  0  0  0  0  0  0  0  0  0
   -9.3443    2.8183   26.1375 C   0  0  0  0  0  0  0  0  0  0  0  0
   -9.4416    2.1715   25.0192 C   0  0  0  0  0  0  0  0  0  0  0  0
  -10.4891    2.1976   24.1158 C   0  0  0  0  0  0  0  0  0  0  0  0
  -11.5899    2.9754   24.4898 C   0  0  0  0  0  0  0  0  0  0  0  0
  -10.5589    3.6846   26.2529 C   0  0  0  0  0  0  0  0  0  0  0  0
  -10.4671    4.5297   27.5167 C   0  0  0  0  0  0  0  0  0  0  0  0
  -11.6127    3.7378   25.4739 C   0  0  0  0  0  0  0  0  0  0  0  0
   -7.1922    5.9105   28.7654 C   0  0  0  0  0  0  0  0  0  0  0  0
   -3.9336    1.0350   29.0505 Cl  0  0  0  0  0  0  0  0  0  0  0  0
  -10.4895    1.2701   22.9308 C   0  0  0  0  0  0  0  0  0  0  0  0
  -10.1859    0.2398   22.6891 C   0  0  0  0  0  0  0  0  0  0  0  0
  -10.1838   -0.4359   21.3847 C   0  0  0  0  0  0  0  0  0  0  0  0
  1  2  1  0
  1  3  2  3
  2 10  1  6
 14 15  1  0
  3 17  1  0
  8 18  1  0
 12 19  1  0
 19 20  2  3
 20 21  1  0
  2  4  1  0
 10 11  2  0
 11 12  1  0
 12 13  2  0
 13 16  1  0
 16 14  2  0
 14 10  1  0
  4  5  2  0
  5  6  1  0
  6  7  2  0
  7  8  1  0
  8  9  2  0
  9  4  1  0
M  END
$$$$
