No_4626-complexes_sdf/6BKW-FPZ/2024-09-17-14-21-01/
     RDKit          3D

 18 20  0  0  0  0  0  0  0  0999 V2000
   -7.2496    3.8871   27.4508 C   0  0  0  0  0  0  0  0  0  0  0  0
   -7.6161    2.7143   27.1523 C   0  0  0  0  0  0  0  0  0  0  0  0
   -8.6212    2.2239   26.4074 C   0  0  0  0  0  0  0  0  0  0  0  0
   -8.2540    4.9237   27.1711 C   0  0  0  0  0  0  0  0  0  0  0  0
   -9.3729    4.5807   26.4433 C   0  0  0  0  0  0  0  0  0  0  0  0
   -9.5831    3.2969   26.1026 C   0  0  0  0  0  0  0  0  0  0  0  0
   -7.9331    6.3206   27.5425 C   0  0  0  0  0  0  0  0  0  0  0  0
   -8.8353    7.2793   27.1606 N   0  0  0  0  0  0  0  0  0  0  0  0
   -8.8798    0.8896   26.0484 C   0  0  0  0  0  0  0  0  0  0  0  0
   -9.1478    0.5128   25.0555 N   0  0  0  0  0  0  0  0  0  0  0  0
   -8.9901   -0.5598   24.4121 C   0  0  0  0  0  0  0  0  0  0  0  0
   -9.4165   -0.7403   23.0292 C   0  0  0  0  0  0  0  0  0  0  0  0
   -9.8679    0.2039   22.5049 C   0  0  0  0  0  0  0  0  0  0  0  0
  -10.0335    1.5162   22.9290 C   0  0  0  0  0  0  0  0  0  0  0  0
   -9.5726    1.6635   24.2532 C   0  0  1  0  0  0  0  0  0  0  0  0
   -9.7778    2.8966   24.7781 N   0  0  0  0  0  0  0  0  0  0  0  0
   -6.8580    6.5947   28.1148 O   0  0  0  0  0  0  0  0  0  0  0  0
  -10.4826    3.9082   23.9135 C   0  0  0  0  0  0  0  0  0  0  0  0
  4  7  1  0
  7  8  1  0
  3  9  1  0
  9 10  1  0
 10 11  1  0
 12 13  1  0
 10 15  1  0
 15 14  1  1
  6 16  1  0
 15 16  1  0
  7 17  2  0
 16 18  1  0
 11 12  1  0
 13 14  1  0
  1  2  2  0
  2  3  1  0
  3  6  2  0
  6  5  1  0
  5  4  2  0
  4  1  1  0
M  END
$$$$
