No_4308-complexes_sdf/6BKW-FPZ/2024-09-17-14-21-01/
     RDKit          3D

 20 22  0  0  0  0  0  0  0  0999 V2000
   -7.7129    4.2099   27.0854 C   0  0  0  0  0  0  0  0  0  0  0  0
   -8.9133    4.4736   27.0998 C   0  0  0  0  0  0  0  0  0  0  0  0
   -9.7135    3.9633   26.0300 C   0  0  0  0  0  0  0  0  0  0  0  0
   -6.8655    4.8824   28.1822 C   0  0  0  0  0  0  0  0  0  0  0  0
   -9.2221    2.8459   25.3619 C   0  0  0  0  0  0  0  0  0  0  0  0
   -8.0164    2.2957   25.7889 C   0  0  0  0  0  0  0  0  0  0  0  0
   -7.3052    2.9474   26.8072 C   0  0  0  0  0  0  0  0  0  0  0  0
  -10.0330    2.1843   24.3790 C   0  0  0  0  0  0  0  0  0  0  0  0
  -10.1884    2.8674   23.1331 C   0  0  0  0  0  0  0  0  0  0  0  0
  -10.8584    2.2754   22.0191 C   0  0  0  0  0  0  0  0  0  0  0  0
  -11.2216    0.9179   22.1161 C   0  0  0  0  0  0  0  0  0  0  0  0
  -10.1531    0.8872   24.1470 C   0  0  0  0  0  0  0  0  0  0  0  0
  -10.7848    0.2335   23.1862 C   0  0  0  0  0  0  0  0  0  0  0  0
   -9.4559    5.8515   27.5530 C   0  0  0  0  0  0  0  0  0  0  0  0
  -11.1044   -1.2311   23.1889 C   0  0  0  0  0  0  0  0  0  0  0  0
  -11.5862   -1.8633   22.3963 C   0  0  0  0  0  0  0  0  0  0  0  0
  -11.8706   -3.2532   22.4632 C   0  0  0  0  0  0  0  0  0  0  0  0
  -11.4831   -3.8825   23.6349 C   0  0  0  0  0  0  0  0  0  0  0  0
  -10.8904   -3.2179   24.6254 C   0  0  0  0  0  0  0  0  0  0  0  0
  -10.6305   -1.8517   24.5254 C   0  0  0  0  0  0  0  0  0  0  0  0
  1  4  1  0
  5  8  1  0
  2 14  1  0
 13 15  1  0
 15 16  2  0
 16 17  1  0
 17 18  2  0
 18 19  1  0
 19 20  2  0
 20 15  1  0
  8  9  2  0
  9 10  1  0
 10 11  2  0
 11 13  1  0
 13 12  2  0
 12  8  1  0
  1  2  2  0
  2  3  1  0
  3  5  2  0
  5  6  1  0
  6  7  2  0
  7  1  1  0
M  END
$$$$
