No_4132-complexes_sdf/6BKW-FPZ/2024-09-17-14-21-01/
     RDKit          3D

 24 26  0  0  0  0  0  0  0  0999 V2000
   -7.9040    3.9820   27.1177 C   0  0  0  0  0  0  0  0  0  0  0  0
   -9.0711    4.3164   27.0630 C   0  0  0  0  0  0  0  0  0  0  0  0
   -9.5182    5.5541   27.5777 C   0  0  0  0  0  0  0  0  0  0  0  0
   -6.9424    4.7983   27.8424 C   0  0  0  0  0  0  0  0  0  0  0  0
   -7.3526    5.9739   28.3909 C   0  0  0  0  0  0  0  0  0  0  0  0
   -8.6479    6.3742   28.2169 C   0  0  0  0  0  0  0  0  0  0  0  0
  -10.0793    3.4689   26.3368 C   0  0  0  0  0  0  0  0  0  0  0  0
   -9.6567    2.5965   25.4484 C   0  0  0  0  0  0  0  0  0  0  0  0
  -10.5086    1.8159   24.6228 C   0  0  0  0  0  0  0  0  0  0  0  0
  -11.8698    2.1070   24.6818 C   0  0  0  0  0  0  0  0  0  0  0  0
  -11.3952    3.7218   26.1031 C   0  0  0  0  0  0  0  0  0  0  0  0
  -12.2817    3.1188   25.4588 C   0  0  0  0  0  0  0  0  0  0  0  0
   -9.8928    0.5363   23.6710 Cl  0  0  0  0  0  0  0  0  0  0  0  0
  -13.7285    3.4724   25.4802 C   0  0  1  0  0  0  0  0  0  0  0  0
  -14.5843    2.6839   26.2288 C   0  0  0  0  0  0  0  0  0  0  0  0
  -14.2561    2.0782   27.2084 C   0  0  0  0  0  0  0  0  0  0  0  0
  -15.1925    1.2179   28.0002 C   0  0  0  0  0  0  0  0  0  0  0  0
  -16.4510    1.1404   27.5143 C   0  0  0  0  0  0  0  0  0  0  0  0
  -16.8253    1.8268   26.4240 C   0  0  0  0  0  0  0  0  0  0  0  0
  -15.9645    2.6538   25.7598 C   0  0  0  0  0  0  0  0  0  0  0  0
  -14.0854    4.7403   24.8255 C   0  0  0  0  0  0  0  0  0  0  0  0
  -18.1260    1.7851   26.0317 O   0  0  0  0  0  0  0  0  0  0  0  0
  -18.7161    1.9696   25.2097 C   0  0  0  0  0  0  0  0  0  0  0  0
  -19.6980    1.6463   24.7589 C   0  0  0  0  0  0  0  0  0  0  0  0
  2  7  1  0
  9 13  1  0
 12 14  1  0
 14 15  1  0
 14 21  1  1
 19 22  1  0
 22 23  1  0
 23 24  2  0
  7  8  2  0
  8  9  1  0
  9 10  2  0
 10 12  1  0
 12 11  2  0
 11  7  1  0
  1  2  2  0
  2  3  1  0
  3  6  2  0
  6  5  1  0
  5  4  2  0
  4  1  1  0
 15 16  2  0
 16 17  1  0
 17 18  2  0
 18 19  1  0
 19 20  2  0
 20 15  1  0
M  END
$$$$
