No_4054-complexes_sdf/6BKW-FPZ/2024-09-17-14-21-01/
     RDKit          3D

 10 10  0  0  0  0  0  0  0  0999 V2000
   -7.7129    4.2099   27.0854 C   0  0  0  0  0  0  0  0  0  0  0  0
   -8.9133    4.4736   27.0998 C   0  0  0  0  0  0  0  0  0  0  0  0
   -9.7135    3.9633   26.0300 C   0  0  0  0  0  0  0  0  0  0  0  0
   -6.8523    4.8996   28.1557 C   0  0  0  0  0  0  0  0  0  0  0  0
   -9.3843    2.8300   25.4577 C   0  0  0  0  0  0  0  0  0  0  0  0
   -8.1268    2.2224   25.8490 C   0  0  0  0  0  0  0  0  0  0  0  0
   -7.3723    2.8616   26.8725 C   0  0  0  0  0  0  0  0  0  0  0  0
  -10.1525    2.1346   24.4648 C   0  0  0  0  0  0  0  0  0  0  0  0
   -9.9841    0.9175   24.1841 C   0  0  0  0  0  0  0  0  0  0  0  0
  -10.6393    0.2585   23.0347 C   0  0  0  0  0  0  0  0  0  0  0  0
  1  4  1  0
  5  8  1  0
  8  9  2  3
  9 10  1  0
  1  2  2  0
  2  3  1  0
  3  5  2  0
  5  6  1  0
  6  7  2  0
  7  1  1  0
M  END
$$$$
