No_4639-complexes_sdf/6BKW-FPZ/2024-09-17-14-21-01/
     RDKit          3D

 14 15  0  0  0  0  0  0  0  0999 V2000
   -7.9040    3.9820   27.1177 C   0  0  0  0  0  0  0  0  0  0  0  0
   -7.8663    4.8694   27.9238 C   0  0  0  0  0  0  0  0  0  0  0  0
   -9.0953    3.1697   27.0532 C   0  0  0  0  0  0  0  0  0  0  0  0
  -10.1313    3.4052   27.8871 C   0  0  0  0  0  0  0  0  0  0  0  0
  -11.2910    2.5514   27.9289 C   0  0  0  0  0  0  0  0  0  0  0  0
   -8.9775    5.3451   28.7374 C   0  0  0  0  0  0  0  0  0  0  0  0
  -10.0738    4.4970   28.7375 C   0  0  0  0  0  0  0  0  0  0  0  0
  -11.1773    1.2444   28.1042 C   0  0  0  0  0  0  0  0  0  0  0  0
  -12.2233    0.3979   28.4059 C   0  0  0  0  0  0  0  0  0  0  0  0
  -13.2383    0.8841   28.5395 C   0  0  0  0  0  0  0  0  0  0  0  0
  -12.6042    3.0101   28.1374 C   0  0  0  0  0  0  0  0  0  0  0  0
  -12.7905    4.4816   27.9760 C   0  0  0  0  0  0  0  0  0  0  0  0
  -13.6362    2.2116   28.4362 C   0  0  0  0  0  0  0  0  0  0  0  0
   -9.0127    1.6520   25.9527 Br  0  0  0  0  0  0  0  0  0  0  0  0
  4  5  1  0
 11 12  1  0
  3 14  1  0
  1  2  2  0
  2  6  1  0
  6  7  2  0
  7  4  1  0
  4  3  2  0
  3  1  1  0
  5  8  2  0
  8  9  1  0
  9 10  2  0
 10 13  1  0
 13 11  2  0
 11  5  1  0
M  END
$$$$
