No_4476-complexes_sdf/6BKW-FPZ/2024-09-17-14-21-01/
     RDKit          3D

 24 27  0  0  0  0  0  0  0  0999 V2000
   -7.9040    3.9820   27.1177 C   0  0  0  0  0  0  0  0  0  0  0  0
   -7.8663    4.8694   27.9238 C   0  0  0  0  0  0  0  0  0  0  0  0
   -9.0491    3.8523   26.2542 C   0  0  0  0  0  0  0  0  0  0  0  0
   -8.7661    5.9491   27.9690 C   0  0  0  0  0  0  0  0  0  0  0  0
   -9.1715    2.7136   25.4037 C   0  0  1  0  0  0  0  0  0  0  0  0
   -9.8832    5.8611   27.1405 C   0  0  0  0  0  0  0  0  0  0  0  0
  -10.0016    4.7998   26.3324 C   0  0  0  0  0  0  0  0  0  0  0  0
  -10.0699    1.8501   25.7483 C   0  0  0  0  0  0  0  0  0  0  0  0
  -10.0811    0.6784   25.0693 C   0  0  0  0  0  0  0  0  0  0  0  0
  -10.7382   -0.3724   25.6107 C   0  0  0  0  0  0  0  0  0  0  0  0
  -11.5341   -0.2231   26.7821 C   0  0  0  0  0  0  0  0  0  0  0  0
  -11.4735    0.9678   27.4866 C   0  0  0  0  0  0  0  0  0  0  0  0
  -10.6564    1.9818   27.0666 C   0  0  0  0  0  0  0  0  0  0  0  0
   -9.2693    0.3544   24.0174 C   0  0  1  0  0  0  0  0  0  0  0  0
   -9.6569    0.9154   22.7064 C   0  0  2  0  0  0  0  0  0  0  0  0
   -7.8440    0.2306   24.0706 C   0  0  0  0  0  0  0  0  0  0  0  0
  -10.3653    2.0218   22.4855 C   0  0  0  0  0  0  0  0  0  0  0  0
  -10.8018    2.4663   21.2774 C   0  0  0  0  0  0  0  0  0  0  0  0
  -11.2764    3.7424   21.0448 C   0  0  0  0  0  0  0  0  0  0  0  0
  -11.5394    4.6088   22.1330 C   0  0  0  0  0  0  0  0  0  0  0  0
  -11.1801    4.1433   23.4396 C   0  0  0  0  0  0  0  0  0  0  0  0
  -10.6136    2.9976   23.6076 C   0  0  0  0  0  0  0  0  0  0  0  0
   -9.9966    2.9318   24.7737 O   0  0  0  0  0  0  0  0  0  0  0  0
   -9.4325   -0.0041   21.6123 C   0  0  0  0  0  0  0  0  0  0  0  0
  5  3  1  1
  5  8  1  0
  9 14  1  0
 14 15  1  0
 14 16  1  1
 15 17  1  0
  5 23  1  0
 22 23  1  0
 15 24  1  1
 17 18  2  0
 18 19  1  0
 19 20  2  0
 20 21  1  0
 21 22  2  0
 22 17  1  0
  1  2  2  0
  2  4  1  0
  4  6  2  0
  6  7  1  0
  7  3  2  0
  3  1  1  0
  8  9  1  0
  9 10  2  0
 10 11  1  0
 11 12  2  0
 12 13  1  0
 13  8  2  0
M  END
$$$$
