No_4138-complexes_sdf/6BKW-FPZ/2024-09-17-14-21-01/
     RDKit          3D

 15 16  0  0  0  0  0  0  0  0999 V2000
   -7.7129    4.2099   27.0854 C   0  0  0  0  0  0  0  0  0  0  0  0
   -8.9133    4.4736   27.0998 C   0  0  0  0  0  0  0  0  0  0  0  0
   -9.7937    3.7367   26.2091 C   0  0  0  0  0  0  0  0  0  0  0  0
   -7.2496    2.8647   26.8496 C   0  0  0  0  0  0  0  0  0  0  0  0
   -6.0209    2.3600   27.3869 C   0  0  0  0  0  0  0  0  0  0  0  0
   -9.3613    2.4975   25.8288 C   0  0  0  0  0  0  0  0  0  0  0  0
   -8.1226    2.0042   26.2755 C   0  0  0  0  0  0  0  0  0  0  0  0
   -5.7073    1.0522   27.4292 N   0  0  0  0  0  0  0  0  0  0  0  0
   -4.5104    0.7466   27.9799 C   0  0  0  0  0  0  0  0  0  0  0  0
   -4.2088   -0.4284   28.5927 C   0  0  0  0  0  0  0  0  0  0  0  0
   -4.9265   -0.9482   29.2406 C   0  0  0  0  0  0  0  0  0  0  0  0
   -4.9105   -2.3945   29.5686 C   0  0  0  0  0  0  0  0  0  0  0  0
   -3.6782   -2.9968   29.4419 C   0  0  0  0  0  0  0  0  0  0  0  0
   -2.6809   -2.3154   28.7756 C   0  0  0  0  0  0  0  0  0  0  0  0
   -2.9004   -1.0093   28.2646 C   0  0  0  0  0  0  0  0  0  0  0  0
  4  5  1  0
  5  8  2  3
  8  9  1  0
  9 10  1  0
  1  2  2  0
  2  3  1  0
  3  6  2  0
  6  7  1  0
  7  4  2  0
  4  1  1  0
 10 11  2  0
 11 12  1  0
 12 13  2  0
 13 14  1  0
 14 15  2  0
 15 10  1  0
M  END
$$$$
