No_425-complexes_sdf/6BKW-FPZ/2024-09-17-14-21-01/
     RDKit          3D

 26 29  0  0  0  0  0  0  0  0999 V2000
   -7.9040    3.9820   27.1177 C   0  0  0  0  0  0  0  0  0  0  0  0
   -9.0711    4.3164   27.0630 C   0  0  0  0  0  0  0  0  0  0  0  0
   -9.9692    3.7224   26.1073 C   0  0  0  0  0  0  0  0  0  0  0  0
   -6.9787    4.6761   28.1003 C   0  0  0  0  0  0  0  0  0  0  0  0
   -9.4538    2.6801   25.3673 C   0  0  0  0  0  0  0  0  0  0  0  0
   -8.1927    2.1957   25.6621 C   0  0  0  0  0  0  0  0  0  0  0  0
   -7.4333    2.8255   26.6299 C   0  0  0  0  0  0  0  0  0  0  0  0
  -10.3181    2.0008   24.3846 C   0  0  1  0  0  0  0  0  0  0  0  0
  -10.6986    2.5306   23.3075 N   0  0  0  0  0  0  0  0  0  0  0  0
  -10.8602    3.7910   23.1863 C   0  0  0  0  0  0  0  0  0  0  0  0
  -11.0826    4.4472   21.8533 C   0  0  0  0  0  0  0  0  0  0  0  0
  -10.8568    1.9006   22.0859 C   0  0  0  0  0  0  0  0  0  0  0  0
  -10.6923    0.4082   22.1313 C   0  0  0  0  0  0  0  0  0  0  0  0
  -11.1656    2.4696   20.8953 C   0  0  0  0  0  0  0  0  0  0  0  0
  -11.2583    3.8286   20.8404 C   0  0  0  0  0  0  0  0  0  0  0  0
  -10.6427    0.6471   24.7192 C   0  0  0  0  0  0  0  0  0  0  0  0
  -10.6743   -0.4537   21.1714 C   0  0  0  0  0  0  0  0  0  0  0  0
  -10.4905   -0.1803   23.5334 C   0  0  0  0  0  0  0  0  0  0  0  0
   -7.5033    5.8166   28.6558 N   0  0  0  0  0  0  0  0  0  0  0  0
   -5.7900    4.4769   28.1231 O   0  0  0  0  0  0  0  0  0  0  0  0
   -9.9965   -1.5696   21.1691 C   0  0  0  0  0  0  0  0  0  0  0  0
   -9.7599   -2.1623   22.4440 C   0  0  0  0  0  0  0  0  0  0  0  0
  -10.0371   -1.4928   23.6426 C   0  0  0  0  0  0  0  0  0  0  0  0
   -9.6993   -2.0717   24.8872 C   0  0  0  0  0  0  0  0  0  0  0  0
   -9.7275   -1.5846   25.9020 O   0  0  0  0  0  0  0  0  0  0  0  0
   -9.3432   -3.3254   24.8001 O   0  0  0  0  0  0  0  0  0  0  0  0
  1  4  1  0
  8  5  1  6
  8  9  1  0
  9 10  1  0
  9 12  1  0
 12 13  1  0
 12 14  1  0
 11 15  1  0
  8 16  1  0
 16 18  1  0
  4 19  1  0
  4 20  2  0
 23 24  1  0
 24 25  2  0
 24 26  1  0
 10 11  1  0
 15 14  1  0
 13 17  2  0
 17 21  1  0
 21 22  2  0
 22 23  1  0
 23 18  2  0
 18 13  1  0
  1  2  2  0
  2  3  1  0
  3  5  2  0
  5  6  1  0
  6  7  2  0
  7  1  1  0
M  END
$$$$
