No_4479-complexes_sdf/6BKW-FPZ/2024-09-17-14-21-01/
     RDKit          3D

 16 17  0  0  0  0  0  0  0  0999 V2000
   -7.9040    3.9820   27.1177 C   0  0  0  0  0  0  0  0  0  0  0  0
   -9.0711    4.3164   27.0630 C   0  0  0  0  0  0  0  0  0  0  0  0
   -9.5182    5.5541   27.5777 C   0  0  0  0  0  0  0  0  0  0  0  0
   -7.4468    2.6843   26.6499 C   0  0  0  0  0  0  0  0  0  0  0  0
   -8.3856    1.7878   26.2216 C   0  0  0  0  0  0  0  0  0  0  0  0
   -9.6812    2.2328   26.0889 C   0  0  0  0  0  0  0  0  0  0  0  0
  -10.0147    3.4312   26.5259 C   0  0  0  0  0  0  0  0  0  0  0  0
   -7.9132    0.4733   25.8127 C   0  0  0  0  0  0  0  0  0  0  0  0
   -8.2493   -0.3847   26.3178 C   0  0  0  0  0  0  0  0  0  0  0  0
   -9.1553   -0.3809   27.5226 C   0  0  0  0  0  0  0  0  0  0  0  0
   -9.8527   -1.1196   27.8247 C   0  0  0  0  0  0  0  0  0  0  0  0
  -10.8632   -0.8711   28.9228 C   0  0  0  0  0  0  0  0  0  0  0  0
  -11.2228    0.4904   29.0621 C   0  0  0  0  0  0  0  0  0  0  0  0
  -10.4433    1.4887   28.5102 C   0  0  0  0  0  0  0  0  0  0  0  0
   -9.5018    1.1164   27.6344 C   0  0  0  0  0  0  0  0  0  0  0  0
   -8.3766    1.5603   28.5640 N   0  0  0  0  0  0  0  0  0  0  0  0
  2  3  1  0
  5  8  1  0
  8  9  2  3
  9 10  1  0
 15 16  1  0
  1  2  2  0
  2  7  1  0
  7  6  2  0
  6  5  1  0
  5  4  2  0
  4  1  1  0
 10 11  2  0
 11 12  1  0
 12 13  2  0
 13 14  1  0
 14 15  2  0
 15 10  1  0
M  END
$$$$
