No_4360-complexes_sdf/6BKW-FPZ/2024-09-17-14-21-01/
     RDKit          3D

 40 46  0  0  0  0  0  0  0  0999 V2000
   -7.7129    4.2099   27.0854 C   0  0  0  0  0  0  0  0  0  0  0  0
   -8.2112    3.0637   26.9225 C   0  0  0  0  0  0  0  0  0  0  0  0
   -8.5108    5.3904   26.9436 C   0  0  0  0  0  0  0  0  0  0  0  0
   -7.9752    6.6981   27.2112 C   0  0  0  0  0  0  0  0  0  0  0  0
   -9.5213    2.8208   26.4688 C   0  0  0  0  0  0  0  0  0  0  0  0
  -10.2979    3.9327   26.2378 C   0  0  0  0  0  0  0  0  0  0  0  0
   -9.7894    5.2123   26.4395 C   0  0  0  0  0  0  0  0  0  0  0  0
   -7.3451    1.8185   27.1796 C   0  0  0  0  0  0  0  0  0  0  0  0
   -6.0720    1.9951   27.7873 C   0  0  0  0  0  0  0  0  0  0  0  0
   -5.2638    0.8363   28.0519 C   0  0  0  0  0  0  0  0  0  0  0  0
   -3.9551    0.9857   28.6381 C   0  0  0  0  0  0  0  0  0  0  0  0
   -5.7429   -0.4445   27.7663 C   0  0  0  0  0  0  0  0  0  0  0  0
   -7.0263   -0.5981   27.2317 C   0  0  0  0  0  0  0  0  0  0  0  0
   -7.8154    0.5390   26.9773 C   0  0  0  0  0  0  0  0  0  0  0  0
   -3.1160    0.0918   28.9806 N   0  0  0  0  0  0  0  0  0  0  0  0
   -2.2638   -0.5746   28.1357 C   0  0  2  0  0  0  0  0  0  0  0  0
   -3.1898   -0.4754   30.3019 C   0  0  0  0  0  0  0  0  0  0  0  0
   -8.6300    7.8047   26.8157 N   0  0  0  0  0  0  0  0  0  0  0  0
   -2.4016   -1.4459   30.7245 C   0  0  0  0  0  0  0  0  0  0  0  0
   -1.3969   -1.5759   28.5633 C   0  0  0  0  0  0  0  0  0  0  0  0
   -1.4256   -1.9697   29.8935 C   0  0  0  0  0  0  0  0  0  0  0  0
   -7.0436    6.8835   28.1657 N   0  0  0  0  0  0  0  0  0  0  0  0
   -4.0687    0.1901   31.1473 N   0  0  0  0  0  0  0  0  0  0  0  0
   -4.2256   -0.2626   32.4484 C   0  0  0  0  0  0  0  0  0  0  0  0
   -3.3557   -1.1957   32.9375 C   0  0  0  0  0  0  0  0  0  0  0  0
   -2.4236   -1.7757   32.1624 C   0  0  0  0  0  0  0  0  0  0  0  0
   -2.2074   -0.0998   26.7689 C   0  0  0  0  0  0  0  0  0  0  0  0
   -1.9520   -0.8330   25.8032 O   0  0  0  0  0  0  0  0  0  0  0  0
   -2.5692    1.2382   26.5205 O   0  0  0  0  0  0  0  0  0  0  0  0
   -7.5715   -1.9108   26.9989 C   0  0  0  0  0  0  0  0  0  0  0  0
   -8.6593   -2.0960   26.7302 N   0  0  0  0  0  0  0  0  0  0  0  0
   -9.6303   -1.3249   27.0568 C   0  0  1  0  0  0  0  0  0  0  0  0
   -9.3167    0.1838   26.9371 C   0  0  2  0  0  0  0  0  0  0  0  0
  -10.2687    1.2905   26.6851 C   0  0  0  0  0  0  0  0  0  0  0  0
   -9.2105   -3.3326   26.0921 C   0  0  0  0  0  0  0  0  0  0  0  0
   -6.6054   -2.8040   26.8530 O   0  0  0  0  0  0  0  0  0  0  0  0
  -10.3805   -3.5451   26.1700 C   0  0  0  0  0  0  0  0  0  0  0  0
  -11.2302   -2.5922   26.1205 C   0  0  0  0  0  0  0  0  0  0  0  0
  -10.8770   -1.1970   26.2553 C   0  0  0  0  0  0  0  0  0  0  0  0
  -10.0346   -1.3698   28.5915 C   0  0  0  0  0  0  0  0  0  0  0  0
  3  4  1  0
  2  8  1  0
 10 11  1  0
 11 15  1  0
 15 16  1  0
 15 17  1  0
  4 18  2  0
 19 21  1  0
 20 21  1  0
  4 22  1  0
 16 27  1  1
 27 28  2  0
 27 29  1  0
 13 30  1  0
 30 31  1  0
 31 32  1  0
 14 33  1  0
 32 33  1  0
  5 34  1  0
 33 34  1  6
 31 35  1  0
 30 36  2  0
 37 38  1  0
 32 39  1  0
 38 39  1  0
 32 40  1  1
 16 20  1  0
 37 35  1  0
  1  2  2  0
  2  5  1  0
  5  6  2  0
  6  7  1  0
  7  3  2  0
  3  1  1  0
  8  9  2  0
  9 10  1  0
 10 12  2  0
 12 13  1  0
 13 14  2  0
 14  8  1  0
 17 23  2  0
 23 24  1  0
 24 25  2  0
 25 26  1  0
 26 19  2  0
 19 17  1  0
M  END
$$$$
