No_4506-complexes_sdf/6BKW-FPZ/2024-09-17-14-21-01/
     RDKit          3D

 15 17  0  0  0  0  0  0  0  0999 V2000
   -7.2496    3.8871   27.4508 C   0  0  0  0  0  0  0  0  0  0  0  0
   -8.5096    4.0291   27.2770 C   0  0  0  0  0  0  0  0  0  0  0  0
   -9.3451    2.8786   26.9046 C   0  0  0  0  0  0  0  0  0  0  0  0
  -10.6709    3.0505   26.6789 C   0  0  0  0  0  0  0  0  0  0  0  0
   -6.5705    4.9572   27.9298 N   0  0  0  0  0  0  0  0  0  0  0  0
  -11.2351    4.2670   26.9658 C   0  0  0  0  0  0  0  0  0  0  0  0
   -9.3619    5.1636   27.5463 C   0  0  0  0  0  0  0  0  0  0  0  0
  -10.6029    5.3389   27.4495 C   0  0  0  0  0  0  0  0  0  0  0  0
   -6.5841    2.7556   27.4134 N   0  0  0  0  0  0  0  0  0  0  0  0
   -7.0534    1.5619   27.2245 C   0  0  0  0  0  0  0  0  0  0  0  0
   -8.6320    1.6030   26.8307 C   0  0  0  0  0  0  0  0  0  0  0  0
   -9.2180    0.4015   26.4703 C   0  0  0  0  0  0  0  0  0  0  0  0
   -8.7502   -0.6563   26.6246 C   0  0  0  0  0  0  0  0  0  0  0  0
   -7.2865   -0.7571   26.9920 C   0  0  0  0  0  0  0  0  0  0  0  0
   -6.4881    0.3631   27.2633 C   0  0  0  0  0  0  0  0  0  0  0  0
  1  2  1  0
  1  5  2  0
  1  9  1  0
  9 10  1  0
  3 11  1  0
  2  3  2  0
  3  4  1  0
  4  6  2  0
  6  8  1  0
  8  7  2  0
  7  2  1  0
 10 11  2  0
 11 12  1  0
 12 13  2  0
 13 14  1  0
 14 15  2  0
 15 10  1  0
M  END
$$$$
