No_4267-complexes_sdf/6BKW-FPZ/2024-09-17-14-21-01/
     RDKit          3D

 24 26  0  0  0  0  0  0  0  0999 V2000
   -7.9040    3.9820   27.1177 C   0  0  0  0  0  0  0  0  0  0  0  0
   -9.0711    4.3164   27.0630 C   0  0  0  0  0  0  0  0  0  0  0  0
   -9.5294    5.4517   27.7215 C   0  0  0  0  0  0  0  0  0  0  0  0
   -7.4336    2.7132   26.5681 C   0  0  0  0  0  0  0  0  0  0  0  0
   -8.3353    1.8569   26.0442 C   0  0  0  0  0  0  0  0  0  0  0  0
   -9.6477    2.2853   25.9146 C   0  0  0  0  0  0  0  0  0  0  0  0
  -10.0346    3.4497   26.4483 C   0  0  0  0  0  0  0  0  0  0  0  0
   -7.8608    0.5626   25.5840 C   0  0  0  0  0  0  0  0  0  0  0  0
   -6.6607    0.2542   25.9666 F   0  0  0  0  0  0  0  0  0  0  0  0
   -8.7108   -0.3923   26.1811 F   0  0  0  0  0  0  0  0  0  0  0  0
   -7.9774    0.4567   24.2856 F   0  0  0  0  0  0  0  0  0  0  0  0
   -6.9033    4.6927   27.8839 N   0  0  0  0  0  0  0  0  0  0  0  0
   -7.2448    5.8739   28.4701 C   0  0  0  0  0  0  0  0  0  0  0  0
   -8.5637    6.2535   28.3350 N   0  0  0  0  0  0  0  0  0  0  0  0
  -11.4320    3.8633   26.1884 C   0  0  0  0  0  0  0  0  0  0  0  0
  -12.2744    2.8938   26.5112 C   0  0  0  0  0  0  0  0  0  0  0  0
  -13.6922    3.2160   26.3858 C   0  0  0  0  0  0  0  0  0  0  0  0
  -14.0180    4.4453   25.8866 C   0  0  0  0  0  0  0  0  0  0  0  0
  -13.0026    5.3529   25.4691 C   0  0  0  0  0  0  0  0  0  0  0  0
  -11.6871    5.0698   25.6609 C   0  0  0  0  0  0  0  0  0  0  0  0
  -15.3256    4.8111   25.6957 F   0  0  0  0  0  0  0  0  0  0  0  0
  -14.6561    2.3899   26.6998 F   0  0  0  0  0  0  0  0  0  0  0  0
  -12.0372    1.7327   27.0570 O   0  0  0  0  0  0  0  0  0  0  0  0
  -12.9376    1.1040   27.8803 C   0  0  0  0  0  0  0  0  0  0  0  0
  5  8  1  0
  8  9  1  0
  8 10  1  0
  8 11  1  0
  7 15  1  0
 18 21  1  0
 17 22  1  0
 16 23  1  0
 23 24  1  0
 15 16  2  0
 16 17  1  0
 17 18  2  0
 18 19  1  0
 19 20  2  0
 20 15  1  0
  2  3  2  0
  3 14  1  0
 14 13  2  0
 13 12  1  0
 12  1  2  0
  1  2  1  0
  2  7  1  0
  7  6  2  0
  6  5  1  0
  5  4  2  0
  4  1  1  0
M  END
$$$$
