No_4264-complexes_sdf/6BKW-FPZ/2024-09-17-14-21-01/
     RDKit          3D

 21 23  0  0  0  0  0  0  0  0999 V2000
   -7.7129    4.2099   27.0854 C   0  0  0  0  0  0  0  0  0  0  0  0
   -8.2112    3.0637   26.9225 C   0  0  0  0  0  0  0  0  0  0  0  0
   -7.5138    1.9223   27.4249 C   0  0  0  0  0  0  0  0  0  0  0  0
   -8.5309    5.4147   26.8151 C   0  0  0  0  0  0  0  0  0  0  0  0
   -8.1184    6.7672   27.1362 C   0  0  0  0  0  0  0  0  0  0  0  0
   -6.1372    2.1405   27.7998 C   0  0  0  0  0  0  0  0  0  0  0  0
   -5.7091    3.4418   28.0019 C   0  0  0  0  0  0  0  0  0  0  0  0
   -6.4145    4.4584   27.7237 C   0  0  0  0  0  0  0  0  0  0  0  0
   -8.9085    7.8548   26.7633 C   0  0  0  0  0  0  0  0  0  0  0  0
   -5.1912    1.0462   28.2648 C   0  0  0  0  0  0  0  0  0  0  0  0
   -5.6784   -0.0259   28.6556 O   0  0  0  0  0  0  0  0  0  0  0  0
   -3.9517    1.2857   28.3329 O   0  0  0  0  0  0  0  0  0  0  0  0
   -9.6821    5.2621   26.0480 C   0  0  0  0  0  0  0  0  0  0  0  0
  -10.2844    4.0807   26.0314 C   0  0  0  0  0  0  0  0  0  0  0  0
   -9.5552    2.8885   26.3935 C   0  0  0  0  0  0  0  0  0  0  0  0
  -10.0555    1.5399   26.1243 C   0  0  0  0  0  0  0  0  0  0  0  0
  -10.6262    1.2191   25.1314 C   0  0  0  0  0  0  0  0  0  0  0  0
  -11.1066   -0.1351   24.8545 C   0  0  0  0  0  0  0  0  0  0  0  0
  -10.8268   -1.0626   25.8231 C   0  0  0  0  0  0  0  0  0  0  0  0
  -10.2086   -0.7368   27.0281 C   0  0  0  0  0  0  0  0  0  0  0  0
   -9.8084    0.5799   27.2529 C   0  0  0  0  0  0  0  0  0  0  0  0
  5  9  1  0
  6 10  1  0
 10 11  2  0
 10 12  1  0
 15 16  1  0
  5  4  1  0
  2 15  1  0
 15 14  2  0
 14 13  1  0
 13  4  2  0
  4  1  1  0
  1  2  1  0
  2  3  2  0
  3  6  1  0
  6  7  2  0
  7  8  1  0
  8  1  2  0
 16 17  2  0
 17 18  1  0
 18 19  2  0
 19 20  1  0
 20 21  2  0
 21 16  1  0
M  END
$$$$
