No_4828-complexes_sdf/6BKW-FPZ/2024-09-17-14-21-01/
     RDKit          3D

 28 31  0  0  0  0  0  0  0  0999 V2000
   -7.9040    3.9820   27.1177 C   0  0  0  0  0  0  0  0  0  0  0  0
   -7.8663    4.8694   27.9238 C   0  0  0  0  0  0  0  0  0  0  0  0
   -7.4698    2.6989   27.4277 C   0  0  0  0  0  0  0  0  0  0  0  0
   -7.9683    1.5964   26.8266 C   0  0  0  0  0  0  0  0  0  0  0  0
   -8.9447    1.7923   25.8533 C   0  0  0  0  0  0  0  0  0  0  0  0
   -9.4405    2.9988   25.5757 C   0  0  0  0  0  0  0  0  0  0  0  0
   -9.0170    4.0377   26.2421 C   0  0  0  0  0  0  0  0  0  0  0  0
   -8.3417    6.1892   27.6538 N   0  0  0  0  0  0  0  0  0  0  0  0
   -9.2337    6.4790   26.7057 C   0  0  0  0  0  0  0  0  0  0  0  0
   -9.5880    5.3832   25.9420 C   0  0  0  0  0  0  0  0  0  0  0  0
   -7.3636    0.2620   27.0962 C   0  0  1  0  0  0  0  0  0  0  0  0
   -8.1523   -0.7910   27.3993 C   0  0  0  0  0  0  0  0  0  0  0  0
   -9.5820   -0.6072   27.4756 C   0  0  0  0  0  0  0  0  0  0  0  0
  -10.4055   -1.6868   27.9841 C   0  0  0  0  0  0  0  0  0  0  0  0
   -9.7441   -2.8332   28.3411 C   0  0  0  0  0  0  0  0  0  0  0  0
   -8.4322   -3.0134   28.2966 C   0  0  0  0  0  0  0  0  0  0  0  0
   -7.5763   -1.9830   27.9055 C   0  0  0  0  0  0  0  0  0  0  0  0
   -5.9505    0.1161   26.9650 C   0  0  0  0  0  0  0  0  0  0  0  0
   -5.1660    0.3760   28.0811 C   0  0  0  0  0  0  0  0  0  0  0  0
   -4.1460   -0.3035   28.5067 C   0  0  0  0  0  0  0  0  0  0  0  0
   -3.2384   -0.6696   27.7663 C   0  0  0  0  0  0  0  0  0  0  0  0
   -2.2056   -1.5259   28.0748 C   0  0  0  0  0  0  0  0  0  0  0  0
   -4.0241   -0.6418   29.9506 C   0  0  0  0  0  0  0  0  0  0  0  0
   -4.8986   -0.1535   30.9996 C   0  0  0  0  0  0  0  0  0  0  0  0
   -2.9438   -1.4429   30.4601 C   0  0  0  0  0  0  0  0  0  0  0  0
   -1.9534   -1.8434   29.4909 C   0  0  0  0  0  0  0  0  0  0  0  0
   -4.6268   -0.5325   32.3424 C   0  0  0  0  0  0  0  0  0  0  0  0
   -3.5536   -1.2599   32.7254 C   0  0  0  0  0  0  0  0  0  0  0  0
  4 11  1  0
 11 18  1  6
 18 19  1  0
 19 20  1  0
 23 24  1  0
 24 27  2  3
 27 28  1  0
 11 12  1  0
 12 13  2  0
 13 14  1  0
 14 15  2  0
 15 16  1  0
 16 17  2  0
 17 12  1  0
  1  2  2  0
  2  8  1  0
  8  9  2  0
  9 10  1  0
 10  7  2  0
 20 21  2  0
 21 22  1  0
 22 26  2  0
 26 25  1  0
 25 23  2  0
 23 20  1  0
  1  3  1  0
  3  4  2  0
  4  5  1  0
  5  6  2  0
  6  7  1  0
  7  1  1  0
M  END
$$$$
