No_494-complexes_sdf/6BKW-FPZ/2024-09-17-14-21-01/
     RDKit          3D

 37 40  0  0  0  0  0  0  0  0999 V2000
   -7.7129    4.2099   27.0854 C   0  0  0  0  0  0  0  0  0  0  0  0
   -8.9133    4.4736   27.0998 C   0  0  0  0  0  0  0  0  0  0  0  0
   -9.4643    5.5426   27.7628 C   0  0  0  0  0  0  0  0  0  0  0  0
   -7.2009    2.9448   26.6134 C   0  0  0  0  0  0  0  0  0  0  0  0
   -8.1365    1.9533   26.2981 C   0  0  0  0  0  0  0  0  0  0  0  0
   -9.4514    2.2934   26.2667 C   0  0  0  0  0  0  0  0  0  0  0  0
   -9.8600    3.4834   26.7068 C   0  0  0  0  0  0  0  0  0  0  0  0
   -7.6136    0.6633   25.8927 C   0  0  0  0  0  0  0  0  0  0  0  0
   -7.7521    0.2143   24.7993 O   0  0  0  0  0  0  0  0  0  0  0  0
   -6.9557   -0.1970   26.9229 N   0  0  0  0  0  0  0  0  0  0  0  0
   -6.4491   -1.4658   26.6377 C   0  0  0  0  0  0  0  0  0  0  0  0
   -5.9381   -2.0538   27.3479 C   0  0  0  0  0  0  0  0  0  0  0  0
   -5.6889   -1.5757   28.7696 C   0  0  0  0  0  0  0  0  0  0  0  0
   -6.0983   -0.2233   29.0202 C   0  0  0  0  0  0  0  0  0  0  0  0
   -6.6812    0.4194   28.1051 C   0  0  0  0  0  0  0  0  0  0  0  0
   -4.9671   -2.3162   29.8436 C   0  0  2  0  0  0  0  0  0  0  0  0
   -5.5345   -2.9792   30.6253 C   0  0  0  0  0  0  0  0  0  0  0  0
   -6.8108   -3.0812   30.9012 C   0  0  0  0  0  0  0  0  0  0  0  0
   -7.4257   -3.6752   32.0732 C   0  0  0  0  0  0  0  0  0  0  0  0
   -6.5550   -4.2622   32.9604 C   0  0  0  0  0  0  0  0  0  0  0  0
   -5.2377   -4.2209   32.8400 C   0  0  0  0  0  0  0  0  0  0  0  0
   -4.6632   -3.5363   31.8104 C   0  0  0  0  0  0  0  0  0  0  0  0
   -3.7839   -1.4914   30.1195 C   0  0  2  0  0  0  0  0  0  0  0  0
   -2.5976   -2.1879   29.6274 C   0  0  0  0  0  0  0  0  0  0  0  0
   -3.6411   -0.3443   30.9275 C   0  0  0  0  0  0  0  0  0  0  0  0
   -1.7081   -1.2844   28.9730 C   0  0  0  0  0  0  0  0  0  0  0  0
   -2.0264   -0.7500   27.7005 C   0  0  0  0  0  0  0  0  0  0  0  0
   -1.8460   -1.5285   26.6245 C   0  0  0  0  0  0  0  0  0  0  0  0
   -1.2257   -2.6770   26.5877 C   0  0  0  0  0  0  0  0  0  0  0  0
   -1.3656   -3.5926   26.1691 C   0  0  0  0  0  0  0  0  0  0  0  0
   -0.4932   -4.7958   26.0988 C   0  0  0  0  0  0  0  0  0  0  0  0
    0.7223   -4.6662   26.7183 C   0  0  0  0  0  0  0  0  0  0  0  0
    1.0972   -3.4904   27.2702 C   0  0  0  0  0  0  0  0  0  0  0  0
    0.2489   -2.4325   27.2432 C   0  0  0  0  0  0  0  0  0  0  0  0
   -2.6032    0.6152   27.6659 C   0  0  0  0  0  0  0  0  0  0  0  0
   -2.9979    1.1196   26.4827 N   0  0  0  0  0  0  0  0  0  0  0  0
   -3.9588   -0.1910   31.9098 O   0  0  0  0  0  0  0  0  0  0  0  0
  5  8  1  0
  8  9  2  0
  8 10  1  0
 10 11  1  0
 12 13  1  0
 10 15  1  0
 14 15  1  0
 16 13  1  1
 16 17  1  0
 16 23  1  0
 23 24  1  1
 23 25  1  0
 24 26  1  0
 26 27  1  0
 27 28  2  3
 28 29  1  0
 27 35  1  0
 35 36  2  0
 25 37  2  0
  3  2  1  0
 11 12  1  0
 13 14  1  0
 17 18  2  0
 18 19  1  0
 19 20  2  0
 20 21  1  0
 21 22  2  0
 22 17  1  0
  1  2  2  0
  2  7  1  0
  7  6  2  0
  6  5  1  0
  5  4  2  0
  4  1  1  0
 29 30  2  0
 30 31  1  0
 31 32  2  0
 32 33  1  0
 33 34  2  0
 34 29  1  0
M  END
$$$$
