No_4383-complexes_sdf/6BKW-FPZ/2024-09-17-14-21-01/
     RDKit          3D

 14 15  0  0  0  0  0  0  0  0999 V2000
   -7.7129    4.2099   27.0854 C   0  0  0  0  0  0  0  0  0  0  0  0
   -8.2112    3.0637   26.9225 C   0  0  0  0  0  0  0  0  0  0  0  0
   -8.5108    5.3904   26.9436 C   0  0  0  0  0  0  0  0  0  0  0  0
   -9.5333    5.2878   26.5026 C   0  0  0  0  0  0  0  0  0  0  0  0
   -9.5076    2.8934   26.4895 C   0  0  0  0  0  0  0  0  0  0  0  0
  -10.2017    4.0665   26.2286 C   0  0  0  0  0  0  0  0  0  0  0  0
   -7.8373    6.5654   27.2524 F   0  0  0  0  0  0  0  0  0  0  0  0
   -7.2402    1.6086   27.2376 Cl  0  0  0  0  0  0  0  0  0  0  0  0
  -10.0622    1.5555   26.2018 C   0  0  0  0  0  0  0  0  0  0  0  0
  -10.9951    1.1525   27.1650 C   0  0  0  0  0  0  0  0  0  0  0  0
  -11.5398   -0.1707   27.1341 C   0  0  0  0  0  0  0  0  0  0  0  0
  -11.1225   -0.9827   26.1108 C   0  0  0  0  0  0  0  0  0  0  0  0
   -9.6417    0.7201   25.2230 C   0  0  0  0  0  0  0  0  0  0  0  0
  -10.1899   -0.5448   25.1303 C   0  0  0  0  0  0  0  0  0  0  0  0
  3  7  1  0
  2  8  1  0
  5  9  1  0
  1  2  2  0
  2  5  1  0
  5  6  2  0
  6  4  1  0
  4  3  2  0
  3  1  1  0
  9 10  2  0
 10 11  1  0
 11 12  2  0
 12 14  1  0
 14 13  2  0
 13  9  1  0
M  END
$$$$
