No_4035-complexes_sdf/6BKW-FPZ/2024-09-17-14-21-01/
     RDKit          3D

 22 23  0  0  0  0  0  0  0  0999 V2000
   -7.7129    4.2099   27.0854 C   0  0  0  0  0  0  0  0  0  0  0  0
   -7.7814    5.1722   27.8972 C   0  0  0  0  0  0  0  0  0  0  0  0
   -8.8255    3.2789   27.1191 C   0  0  0  0  0  0  0  0  0  0  0  0
   -9.9209    3.4734   27.9101 C   0  0  0  0  0  0  0  0  0  0  0  0
   -9.9736    4.7085   28.6831 C   0  0  0  0  0  0  0  0  0  0  0  0
   -8.8840    5.5441   28.6612 C   0  0  0  0  0  0  0  0  0  0  0  0
   -8.7102    2.0171   26.3293 C   0  0  0  0  0  0  0  0  0  0  0  0
   -9.2831    1.9661   25.0865 C   0  0  0  0  0  0  0  0  0  0  0  0
   -9.1881    0.8289   24.2810 C   0  0  0  0  0  0  0  0  0  0  0  0
   -7.9887    0.9460   26.7963 C   0  0  0  0  0  0  0  0  0  0  0  0
   -7.8378   -0.2196   26.0476 C   0  0  0  0  0  0  0  0  0  0  0  0
   -8.4316   -0.2459   24.7792 C   0  0  0  0  0  0  0  0  0  0  0  0
  -11.2552    2.4699   27.9546 Cl  0  0  0  0  0  0  0  0  0  0  0  0
   -9.8548    0.8024   22.7434 Cl  0  0  0  0  0  0  0  0  0  0  0  0
   -7.0959   -1.3762   26.5408 C   0  0  0  0  0  0  0  0  0  0  0  0
   -6.6340   -1.9765   27.6426 Cl  0  0  0  0  0  0  0  0  0  0  0  0
   -6.6110   -2.2103   25.2311 C   0  0  0  0  0  0  0  0  0  0  0  0
   -9.9691    3.0525   24.5731 F   0  0  0  0  0  0  0  0  0  0  0  0
   -6.8533   -3.2194   25.0109 C   0  0  0  0  0  0  0  0  0  0  0  0
   -6.3280   -3.9241   23.8005 C   0  0  0  0  0  0  0  0  0  0  0  0
   -5.6841   -3.1461   22.8625 C   0  0  0  0  0  0  0  0  0  0  0  0
   -5.4906   -1.7843   23.1003 C   0  0  0  0  0  0  0  0  0  0  0  0
  3  7  1  0
  4 13  1  0
  9 14  1  0
 11 15  1  0
 15 16  1  0
 15 17  1  0
  8 18  1  0
 17 19  2  3
 19 20  1  0
 20 21  2  3
 21 22  1  0
  1  2  2  0
  2  6  1  0
  6  5  2  0
  5  4  1  0
  4  3  2  0
  3  1  1  0
  7  8  2  0
  8  9  1  0
  9 12  2  0
 12 11  1  0
 11 10  2  0
 10  7  1  0
M  END
$$$$
