No_4002-complexes_sdf/6BKW-FPZ/2024-09-17-14-21-01/
     RDKit          3D

 13 14  0  0  0  0  0  0  0  0999 V2000
   -7.7129    4.2099   27.0854 C   0  0  0  0  0  0  0  0  0  0  0  0
   -8.2112    3.0637   26.9225 C   0  0  0  0  0  0  0  0  0  0  0  0
   -8.5108    5.3904   26.9436 C   0  0  0  0  0  0  0  0  0  0  0  0
   -9.7256    5.1955   26.3518 C   0  0  0  0  0  0  0  0  0  0  0  0
   -7.4704    1.8386   27.3272 C   0  0  0  0  0  0  0  0  0  0  0  0
   -9.5296    2.9550   26.4652 C   0  0  0  0  0  0  0  0  0  0  0  0
  -10.0753    1.5956   26.2382 C   0  0  0  0  0  0  0  0  0  0  0  0
  -10.2776    4.0123   26.1624 C   0  0  0  0  0  0  0  0  0  0  0  0
   -9.3109    0.4953   26.5361 C   0  0  0  0  0  0  0  0  0  0  0  0
   -8.0367    0.5911   27.1519 C   0  0  0  0  0  0  0  0  0  0  0  0
   -7.9297    6.7514   27.1640 C   0  0  0  0  0  0  0  0  0  0  0  0
   -6.9029    6.8115   27.8685 O   0  0  0  0  0  0  0  0  0  0  0  0
   -8.4191    7.8123   26.6559 O   0  0  0  0  0  0  0  0  0  0  0  0
  3 11  1  0
 11 12  2  0
 11 13  1  0
  1  2  2  0
  6  8  2  0
  8  4  1  0
  4  3  2  0
  3  1  1  0
  2  5  1  0
  5 10  2  0
 10  9  1  0
  9  7  2  0
  7  6  1  0
  6  2  1  0
M  END
$$$$
