No_4074-complexes_sdf/6BKW-FPZ/2024-09-17-14-21-01/
     RDKit          3D

 34 39  0  0  0  0  0  0  0  0999 V2000
   -7.9040    3.9820   27.1177 C   0  0  0  0  0  0  0  0  0  0  0  0
   -9.0711    4.3164   27.0630 C   0  0  0  0  0  0  0  0  0  0  0  0
   -9.5294    5.4517   27.7215 C   0  0  0  0  0  0  0  0  0  0  0  0
   -6.9328    4.7309   27.8881 C   0  0  0  0  0  0  0  0  0  0  0  0
   -7.3377    5.8421   28.5537 C   0  0  0  0  0  0  0  0  0  0  0  0
   -8.6411    6.2609   28.3972 C   0  0  0  0  0  0  0  0  0  0  0  0
  -10.0493    3.4953   26.2711 C   0  0  0  0  0  0  0  0  0  0  0  0
  -10.7037    2.5794   26.7787 C   0  0  0  0  0  0  0  0  0  0  0  0
  -11.4636    1.7148   26.2848 C   0  0  0  0  0  0  0  0  0  0  0  0
  -10.1921    3.7906   24.8835 C   0  0  0  0  0  0  0  0  0  0  0  0
  -10.9765    2.9747   24.1267 C   0  0  0  0  0  0  0  0  0  0  0  0
  -11.6772    1.9311   24.8363 C   0  0  0  0  0  0  0  0  0  0  0  0
  -11.2035    3.2158   22.7277 C   0  0  0  0  0  0  0  0  0  0  0  0
  -10.6812    2.4349   21.8838 C   0  0  0  0  0  0  0  0  0  0  0  0
  -10.6173    2.6655   20.5373 C   0  0  0  0  0  0  0  0  0  0  0  0
  -11.3085    3.8729   20.0334 C   0  0  0  0  0  0  0  0  0  0  0  0
  -11.7549    4.5026   22.2954 C   0  0  0  0  0  0  0  0  0  0  0  0
  -11.7722    4.7678   20.9861 C   0  0  0  0  0  0  0  0  0  0  0  0
   -9.9771    1.2478   22.2294 N   0  0  0  0  0  0  0  0  0  0  0  0
  -10.4716    0.0386   22.6876 C   0  0  0  0  0  0  0  0  0  0  0  0
   -9.5187   -0.9428   22.9880 C   0  0  0  0  0  0  0  0  0  0  0  0
   -8.2888   -0.3391   22.7587 C   0  0  2  0  0  0  0  0  0  0  0  0
   -8.5408    0.8203   22.1194 C   0  0  0  0  0  0  0  0  0  0  0  0
   -6.9445   -0.9074   22.8011 C   0  0  0  0  0  0  0  0  0  0  0  0
   -6.7010   -1.8171   23.8561 C   0  0  0  0  0  0  0  0  0  0  0  0
   -7.4790   -2.2232   24.5134 N   0  0  0  0  0  0  0  0  0  0  0  0
   -8.8086   -2.6136   24.4524 C   0  0  0  0  0  0  0  0  0  0  0  0
   -9.4815   -1.5031   24.3886 C   0  0  0  0  0  0  0  0  0  0  0  0
   -7.1821   -1.8860   26.0204 C   0  0  0  0  0  0  0  0  0  0  0  0
   -6.4323   -2.7463   26.7402 C   0  0  0  0  0  0  0  0  0  0  0  0
   -6.2044   -2.3712   27.9518 C   0  0  0  0  0  0  0  0  0  0  0  0
   -6.7658   -1.1599   28.5779 C   0  0  0  0  0  0  0  0  0  0  0  0
   -7.7027   -0.6811   26.5885 C   0  0  0  0  0  0  0  0  0  0  0  0
   -7.4390   -0.2855   27.6263 C   0  0  0  0  0  0  0  0  0  0  0  0
  2  7  1  0
 11 13  1  0
 14 19  1  0
 19 20  1  0
 20 21  2  0
 21 22  1  0
 19 23  1  0
 22 23  1  6
 22 24  1  0
 24 25  1  0
 25 26  1  0
 26 27  1  0
 21 28  1  0
 27 28  1  0
 26 29  1  0
 13 14  1  0
 14 15  2  0
 15 16  1  0
 16 18  2  0
 18 17  1  0
 17 13  2  0
  1  2  2  0
  2  3  1  0
  3  6  2  0
  6  5  1  0
  5  4  2  0
  4  1  1  0
  7  8  2  0
  8  9  1  0
  9 12  2  0
 12 11  1  0
 11 10  2  0
 10  7  1  0
 29 30  2  0
 30 31  1  0
 31 32  2  0
 32 34  1  0
 34 33  2  0
 33 29  1  0
M  END
$$$$
