No_4681-complexes_sdf/6BKW-FPZ/2024-09-17-14-21-01/
     RDKit          3D

 26 29  0  0  0  0  0  0  0  0999 V2000
   -7.7129    4.2099   27.0854 C   0  0  0  0  0  0  0  0  0  0  0  0
   -8.2112    3.0637   26.9225 C   0  0  0  0  0  0  0  0  0  0  0  0
   -9.4446    2.8304   26.1868 C   0  0  0  0  0  0  0  0  0  0  0  0
   -8.4697    5.3956   26.7238 C   0  0  0  0  0  0  0  0  0  0  0  0
   -9.6172    5.2111   25.9513 C   0  0  0  0  0  0  0  0  0  0  0  0
  -10.0424    3.9782   25.6873 C   0  0  0  0  0  0  0  0  0  0  0  0
   -7.9172    6.7181   27.0124 C   0  0  0  0  0  0  0  0  0  0  0  0
   -7.2795    6.8092   28.0807 O   0  0  0  0  0  0  0  0  0  0  0  0
   -8.2593    7.7595   26.3644 O   0  0  0  0  0  0  0  0  0  0  0  0
   -7.4952    1.8068   27.3757 C   0  0  0  0  0  0  0  0  0  0  0  0
   -8.0423    0.5284   27.2830 C   0  0  0  0  0  0  0  0  0  0  0  0
   -7.3343   -0.5285   27.7089 C   0  0  0  0  0  0  0  0  0  0  0  0
   -6.0402   -0.3757   28.2199 C   0  0  0  0  0  0  0  0  0  0  0  0
   -5.4311    0.8996   28.2071 C   0  0  0  0  0  0  0  0  0  0  0  0
   -6.1052    1.9478   27.7927 C   0  0  0  0  0  0  0  0  0  0  0  0
   -4.0282    1.0392   28.7039 C   0  0  0  0  0  0  0  0  0  0  0  0
   -3.5685    0.0969   29.6472 C   0  0  0  0  0  0  0  0  0  0  0  0
   -2.2556    0.1606   30.0755 C   0  0  0  0  0  0  0  0  0  0  0  0
   -4.4460   -0.8735   30.2094 C   0  0  0  0  0  0  0  0  0  0  0  0
   -5.5475   -1.2742   29.3064 C   0  0  0  0  0  0  0  0  0  0  0  0
   -1.9668   -0.6954   31.2522 C   0  0  0  0  0  0  0  0  0  0  0  0
   -3.0088   -1.6093   31.7400 C   0  0  0  0  0  0  0  0  0  0  0  0
   -4.1871   -1.7256   31.1985 C   0  0  0  0  0  0  0  0  0  0  0  0
  -11.2565    3.8412   24.8398 C   0  0  0  0  0  0  0  0  0  0  0  0
  -12.4771    3.5401   25.3919 C   0  0  0  0  0  0  0  0  0  0  0  0
  -13.6106    3.4366   24.5682 C   0  0  0  0  0  0  0  0  0  0  0  0
  4  7  1  0
  7  8  2  0
  7  9  1  0
  2 10  1  0
  6 24  1  0
 24 25  2  3
 25 26  1  0
 17 18  1  0
 18 21  2  0
 21 22  1  0
 22 23  2  0
 23 19  1  0
  1  2  2  0
  2  3  1  0
  3  6  2  0
  6  5  1  0
  5  4  2  0
  4  1  1  0
 10 11  2  0
 11 12  1  0
 12 13  2  0
 14 15  2  0
 15 10  1  0
 13 14  1  0
 14 16  1  0
 16 17  2  0
 17 19  1  0
 19 20  2  0
 20 13  1  0
M  END
$$$$
