No_4586-complexes_sdf/6BKW-FPZ/2024-09-17-14-21-01/
     RDKit          3D

 40 44  0  0  0  0  0  0  0  0999 V2000
   -7.9040    3.9820   27.1177 C   0  0  0  0  0  0  0  0  0  0  0  0
   -7.8663    4.8694   27.9238 C   0  0  0  0  0  0  0  0  0  0  0  0
   -9.0491    3.8523   26.2542 C   0  0  0  0  0  0  0  0  0  0  0  0
   -8.7661    5.9491   27.9690 C   0  0  0  0  0  0  0  0  0  0  0  0
   -9.9295    4.8502   26.2323 C   0  0  0  0  0  0  0  0  0  0  0  0
   -9.8077    5.9288   27.0933 C   0  0  0  0  0  0  0  0  0  0  0  0
   -9.0726    2.7074   25.3087 C   0  0  0  0  0  0  0  0  0  0  0  0
   -9.9759    2.7847   24.3262 N   0  0  0  0  0  0  0  0  0  0  0  0
  -10.5648    3.8085   23.8842 C   0  0  0  0  0  0  0  0  0  0  0  0
  -10.7598    4.8368   25.0396 N   0  0  0  0  0  0  0  0  0  0  0  0
   -8.2866    1.6368   25.4665 N   0  0  0  0  0  0  0  0  0  0  0  0
  -11.4856    4.0095   22.8967 C   0  0  0  0  0  0  0  0  0  0  0  0
   -8.7300    0.4532   25.9750 C   0  0  0  0  0  0  0  0  0  0  0  0
   -9.5006    0.2159   26.7468 C   0  0  0  0  0  0  0  0  0  0  0  0
   -9.8121   -1.0056   27.4453 C   0  0  0  0  0  0  0  0  0  0  0  0
   -8.9553   -2.0187   27.1850 C   0  0  0  0  0  0  0  0  0  0  0  0
   -7.6908   -0.6353   25.7418 C   0  0  0  0  0  0  0  0  0  0  0  0
   -7.9115   -1.8374   26.3432 C   0  0  0  0  0  0  0  0  0  0  0  0
   -9.2408   -3.3255   27.8899 C   0  0  0  0  0  0  0  0  0  0  0  0
  -10.2019   -3.5969   28.3266 C   0  0  0  0  0  0  0  0  0  0  0  0
  -10.4593   -4.8148   29.0572 C   0  0  0  0  0  0  0  0  0  0  0  0
   -9.4008   -5.6970   29.1613 C   0  0  0  0  0  0  0  0  0  0  0  0
   -8.2223   -5.3884   28.6346 C   0  0  0  0  0  0  0  0  0  0  0  0
   -8.0252   -4.1661   28.0367 C   0  0  0  0  0  0  0  0  0  0  0  0
   -6.8725   -6.3981   28.7835 Cl  0  0  0  0  0  0  0  0  0  0  0  0
  -12.0406    2.8623   22.4790 C   0  0  0  0  0  0  0  0  0  0  0  0
  -12.7636    2.8204   21.3944 C   0  0  0  0  0  0  0  0  0  0  0  0
  -13.0725    4.0404   20.6909 C   0  0  0  0  0  0  0  0  0  0  0  0
  -12.4452    5.1807   21.1327 C   0  0  0  0  0  0  0  0  0  0  0  0
  -11.6297    5.2412   22.2359 C   0  0  0  0  0  0  0  0  0  0  0  0
   -6.5643   -0.4423   24.7657 C   0  0  0  0  0  0  0  0  0  0  0  0
   -6.4304   -0.6608   23.7617 O   0  0  0  0  0  0  0  0  0  0  0  0
   -5.3529   -0.1471   25.5204 O   0  0  0  0  0  0  0  0  0  0  0  0
   -4.3050   -1.0323   25.5303 C   0  0  0  0  0  0  0  0  0  0  0  0
   -3.3840   -0.6486   26.6305 C   0  0  0  0  0  0  0  0  0  0  0  0
   -3.7734   -0.8477   27.8982 C   0  0  0  0  0  0  0  0  0  0  0  0
   -3.5402   -1.6025   28.5624 C   0  0  0  0  0  0  0  0  0  0  0  0
   -4.0277   -1.7253   30.0581 C   0  0  0  0  0  0  0  0  0  0  0  0
   -4.8355   -0.6809   30.4977 C   0  0  0  0  0  0  0  0  0  0  0  0
   -4.6284    0.3714   28.4462 C   0  0  0  0  0  0  0  0  0  0  0  0
  7 11  1  0
  9 12  1  0
 11 13  1  0
 16 19  1  0
 23 25  1  0
 17 31  1  0
 31 32  2  0
 31 33  1  0
 33 34  1  0
 34 35  1  0
 35 36  1  0
 36 37  2  3
 37 38  1  0
 38 39  2  0
 36 40  1  0
 12 26  2  0
 26 27  1  0
 27 28  2  0
 28 29  1  0
 29 30  2  0
 30 12  1  0
 19 20  2  0
 20 21  1  0
 21 22  2  0
 22 23  1  0
 23 24  2  0
 24 19  1  0
  5 10  2  0
 10  9  1  0
  9  8  2  0
  8  7  1  0
  7  3  2  0
 13 14  2  0
 14 15  1  0
 15 16  2  0
 16 18  1  0
 18 17  2  0
 17 13  1  0
  1  2  2  0
  2  4  1  0
  4  6  2  0
  6  5  1  0
  5  3  1  0
  3  1  1  0
M  END
$$$$
