No_4970-complexes_sdf/6BKW-FPZ/2024-09-17-14-21-01/
     RDKit          3D

 16 17  0  0  0  0  0  0  0  0999 V2000
   -7.7129    4.2099   27.0854 C   0  0  0  0  0  0  0  0  0  0  0  0
   -8.2112    3.0637   26.9225 C   0  0  0  0  0  0  0  0  0  0  0  0
   -7.5138    1.9223   27.4249 C   0  0  0  0  0  0  0  0  0  0  0  0
   -8.5309    5.4147   26.8151 C   0  0  0  0  0  0  0  0  0  0  0  0
   -9.6817    5.2393   26.1100 C   0  0  0  0  0  0  0  0  0  0  0  0
  -10.1032    3.9957   25.8534 C   0  0  0  0  0  0  0  0  0  0  0  0
   -9.4034    2.8430   26.2573 C   0  0  0  0  0  0  0  0  0  0  0  0
   -6.2458    1.9913   27.8654 N   0  0  0  0  0  0  0  0  0  0  0  0
   -7.8423    0.5705   27.0707 C   0  0  0  0  0  0  0  0  0  0  0  0
   -5.3604    2.8480   28.0406 C   0  0  0  0  0  0  0  0  0  0  0  0
   -9.1054    0.2405   26.9066 C   0  0  0  0  0  0  0  0  0  0  0  0
   -9.9426    1.4413   26.2077 C   0  0  0  0  0  0  0  0  0  0  0  0
  -11.3722    3.8271   25.0798 C   0  0  0  0  0  0  0  0  0  0  0  0
  -12.4792    3.7520   25.6091 N   0  0  0  0  0  0  0  0  0  0  0  0
  -12.6017    3.9690   27.0095 C   0  0  0  0  0  0  0  0  0  0  0  0
  -13.9935    4.1194   27.5483 C   0  0  0  0  0  0  0  0  0  0  0  0
  8 10  1  0
  6 13  1  0
 13 14  2  3
 14 15  1  0
 15 16  2  0
  8  3  1  0
  1  2  2  0
  7  6  2  0
  6  5  1  0
  5  4  2  0
  4  1  1  0
  2  3  1  0
  3  9  2  0
  9 11  1  0
 11 12  2  0
 12  7  1  0
  7  2  1  0
M  END
$$$$
