No_442-complexes_sdf/6BKW-FPZ/2024-09-17-14-21-01/
     RDKit          3D

 39 41  0  0  0  0  0  0  0  0999 V2000
   -7.9040    3.9820   27.1177 C   0  0  0  0  0  0  0  0  0  0  0  0
   -8.2057    2.8231   26.8733 C   0  0  0  0  0  0  0  0  0  0  0  0
   -7.0130    4.3706   28.1140 C   0  0  0  0  0  0  0  0  0  0  0  0
   -7.4093    1.7370   27.3857 C   0  0  0  0  0  0  0  0  0  0  0  0
   -6.1943    2.1490   28.0403 C   0  0  0  0  0  0  0  0  0  0  0  0
   -5.9708    3.4680   28.3199 C   0  0  0  0  0  0  0  0  0  0  0  0
   -8.9048    5.0960   26.7137 C   0  0  0  0  0  0  0  0  0  0  0  0
   -9.0277    6.2793   27.4494 C   0  0  0  0  0  0  0  0  0  0  0  0
   -9.5500    4.9301   25.4778 C   0  0  0  0  0  0  0  0  0  0  0  0
   -5.2308    1.0849   28.3991 C   0  0  1  0  0  0  0  0  0  0  0  0
   -4.3431    1.4561   29.1661 F   0  0  0  0  0  0  0  0  0  0  0  0
   -5.4035   -0.1824   28.0382 N   0  0  0  0  0  0  0  0  0  0  0  0
   -4.7439   -1.2172   28.6327 C   0  0  0  0  0  0  0  0  0  0  0  0
   -5.0859   -2.0895   29.1994 C   0  0  0  0  0  0  0  0  0  0  0  0
   -4.2827   -3.1207   29.8137 C   0  0  0  0  0  0  0  0  0  0  0  0
   -3.2493   -2.8866   29.8953 C   0  0  0  0  0  0  0  0  0  0  0  0
   -3.2229   -1.0544   28.8756 C   0  0  0  0  0  0  0  0  0  0  0  0
   -2.5753    0.2012   28.1335 C   0  0  0  0  0  0  0  0  0  0  0  0
   -2.3843   -1.9048   29.4489 C   0  0  0  0  0  0  0  0  0  0  0  0
  -10.3958    3.9253   25.1955 C   0  0  0  0  0  0  0  0  0  0  0  0
  -11.0619    3.9300   23.9305 C   0  0  2  0  0  0  0  0  0  0  0  0
  -11.9787    3.0042   23.6178 C   0  0  0  0  0  0  0  0  0  0  0  0
  -12.5151    3.0173   22.3810 C   0  0  0  0  0  0  0  0  0  0  0  0
  -13.4203    1.9962   21.9611 C   0  0  0  0  0  0  0  0  0  0  0  0
  -13.7329    1.0288   22.8773 C   0  0  0  0  0  0  0  0  0  0  0  0
  -13.2358    1.0087   24.1183 C   0  0  0  0  0  0  0  0  0  0  0  0
  -12.2924    1.9908   24.5680 C   0  0  0  0  0  0  0  0  0  0  0  0
   -2.9930    0.9481   27.4396 O   0  0  0  0  0  0  0  0  0  0  0  0
   -2.3740    0.9156   26.0237 C   0  0  0  0  0  0  0  0  0  0  0  0
   -1.2367    0.1518   28.3665 O   0  0  0  0  0  0  0  0  0  0  0  0
  -10.1394    4.4891   22.9285 C   0  0  0  0  0  0  0  0  0  0  0  0
   -6.1567   -0.6636   26.9360 C   0  0  0  0  0  0  0  0  0  0  0  0
   -5.5322   -0.8732   25.7366 C   0  0  0  0  0  0  0  0  0  0  0  0
   -6.3035   -1.1644   24.5885 C   0  0  0  0  0  0  0  0  0  0  0  0
   -7.6504   -0.9408   24.6299 C   0  0  0  0  0  0  0  0  0  0  0  0
   -8.3933   -1.0684   23.4692 C   0  0  0  0  0  0  0  0  0  0  0  0
   -9.8131   -0.7409   23.4739 C   0  0  0  0  0  0  0  0  0  0  0  0
  -10.3674   -0.5156   24.7825 C   0  0  0  0  0  0  0  0  0  0  0  0
   -9.6349   -0.5395   25.9275 C   0  0  0  0  0  0  0  0  0  0  0  0
  1  7  1  0
  7  8  2  0
  7  9  1  0
  5 10  1  0
 10 11  1  1
 10 12  1  0
 12 13  1  0
 17 18  1  0
  9 20  2  3
 20 21  1  0
 21 22  1  0
 18 28  1  0
 28 29  1  0
 18 30  2  0
 21 31  1  6
 12 32  1  0
 32 33  1  0
 33 34  2  3
 34 35  1  0
 35 36  2  3
 36 37  1  0
 37 38  2  3
 38 39  1  0
  1  2  2  0
  2  4  1  0
  4  5  2  0
  5  6  1  0
  6  3  2  0
  3  1  1  0
 22 23  2  0
 23 24  1  0
 24 25  2  0
 25 26  1  0
 26 27  2  0
 27 22  1  0
 13 14  2  0
 14 15  1  0
 15 16  2  0
 16 19  1  0
 19 17  2  0
 17 13  1  0
M  END
$$$$
