No_4234-complexes_sdf/6BKW-FPZ/2024-09-17-14-21-01/
     RDKit          3D

 26 29  0  0  0  0  0  0  0  0999 V2000
   -7.7129    4.2099   27.0854 C   0  0  0  0  0  0  0  0  0  0  0  0
   -8.2112    3.0637   26.9225 C   0  0  0  0  0  0  0  0  0  0  0  0
   -7.5138    1.9223   27.4249 C   0  0  0  0  0  0  0  0  0  0  0  0
   -8.5309    5.4147   26.8151 C   0  0  0  0  0  0  0  0  0  0  0  0
   -9.6817    5.2393   26.1100 C   0  0  0  0  0  0  0  0  0  0  0  0
  -10.1032    3.9957   25.8534 C   0  0  0  0  0  0  0  0  0  0  0  0
   -9.4035    2.8430   26.2573 C   0  0  0  0  0  0  0  0  0  0  0  0
   -8.0069    0.6506   27.2927 N   0  0  0  0  0  0  0  0  0  0  0  0
   -7.2168   -0.4310   27.4918 C   0  0  0  0  0  0  0  0  0  0  0  0
   -6.1093   -0.3427   27.4166 C   0  0  0  0  0  0  0  0  0  0  0  0
   -5.1690   -1.4743   27.6575 C   0  0  0  0  0  0  0  0  0  0  0  0
   -6.1919    1.9941   27.5822 N   0  0  0  0  0  0  0  0  0  0  0  0
   -5.3817    0.9833   27.6017 C   0  0  0  0  0  0  0  0  0  0  0  0
   -7.9848    6.7658   27.0922 C   0  0  0  0  0  0  0  0  0  0  0  0
   -8.6567    7.8634   26.7296 N   0  0  0  0  0  0  0  0  0  0  0  0
   -6.9096    6.8464   27.7841 O   0  0  0  0  0  0  0  0  0  0  0  0
   -3.9110   -1.2262   28.1067 C   0  0  0  0  0  0  0  0  0  0  0  0
   -3.2272    0.0610   27.9668 C   0  0  0  0  0  0  0  0  0  0  0  0
   -4.0113    1.1252   27.8871 C   0  0  0  0  0  0  0  0  0  0  0  0
   -7.9908   -1.5932   27.3882 N   0  0  0  0  0  0  0  0  0  0  0  0
   -9.2100   -1.7435   27.5849 C   0  0  0  0  0  0  0  0  0  0  0  0
   -9.7245   -2.9586   27.7615 C   0  0  0  0  0  0  0  0  0  0  0  0
  -11.0342   -3.1365   28.1421 C   0  0  0  0  0  0  0  0  0  0  0  0
  -11.9223   -2.0069   28.2774 C   0  0  0  0  0  0  0  0  0  0  0  0
  -11.4126   -0.7303   28.0965 C   0  0  0  0  0  0  0  0  0  0  0  0
  -10.0864   -0.5532   27.8432 C   0  0  0  0  0  0  0  0  0  0  0  0
  2  3  1  0
  4 14  1  0
 14 15  1  0
 14 16  2  0
  9 20  1  0
 20 21  1  0
 10 11  1  0
 11 17  2  0
 17 18  1  0
 18 19  2  0
 19 13  1  0
 21 22  2  0
 22 23  1  0
 23 24  2  0
 24 25  1  0
 25 26  2  0
 26 21  1  0
  1  2  2  0
  2  7  1  0
  7  6  2  0
  6  5  1  0
  5  4  2  0
  4  1  1  0
  3  8  2  0
  8  9  1  0
  9 10  2  0
 10 13  1  0
 13 12  2  0
 12  3  1  0
M  END
$$$$
