No_4708-complexes_sdf/6BKW-FPZ/2024-09-17-14-21-01/
     RDKit          3D

 39 44  0  0  0  0  0  0  0  0999 V2000
   -7.9040    3.9820   27.1177 C   0  0  0  0  0  0  0  0  0  0  0  0
   -7.8663    4.8694   27.9238 C   0  0  0  0  0  0  0  0  0  0  0  0
   -9.0491    3.8523   26.2542 C   0  0  0  0  0  0  0  0  0  0  0  0
   -8.7661    5.9491   27.9690 C   0  0  0  0  0  0  0  0  0  0  0  0
   -9.9295    4.8502   26.2323 C   0  0  0  0  0  0  0  0  0  0  0  0
   -9.8077    5.9288   27.0933 C   0  0  0  0  0  0  0  0  0  0  0  0
   -6.9606    2.7994   27.1981 C   0  0  0  0  0  0  0  0  0  0  0  0
   -7.3659    1.5557   26.7971 N   0  0  0  0  0  0  0  0  0  0  0  0
   -5.8069    2.9094   27.7673 N   0  0  0  0  0  0  0  0  0  0  0  0
   -6.8105    0.4549   27.0585 C   0  0  0  0  0  0  0  0  0  0  0  0
   -5.0094    1.8117   28.0412 C   0  0  0  0  0  0  0  0  0  0  0  0
   -5.4856    0.5819   27.7066 C   0  0  0  0  0  0  0  0  0  0  0  0
   -4.7177   -0.6358   27.9728 C   0  0  1  0  0  0  0  0  0  0  0  0
   -5.2397   -1.4063   28.7780 C   0  0  0  0  0  0  0  0  0  0  0  0
   -4.5584   -2.5128   29.2612 C   0  0  0  0  0  0  0  0  0  0  0  0
   -5.1047   -3.4061   30.2800 C   0  0  0  0  0  0  0  0  0  0  0  0
   -6.4272   -3.1695   30.7234 C   0  0  0  0  0  0  0  0  0  0  0  0
   -7.1710   -2.0845   30.2362 C   0  0  0  0  0  0  0  0  0  0  0  0
   -6.6356   -1.2274   29.3984 C   0  0  0  0  0  0  0  0  0  0  0  0
   -4.1625   -1.1944   26.6958 C   0  0  0  0  0  0  0  0  0  0  0  0
   -3.2935   -0.0639   28.7096 C   0  0  0  0  0  0  0  0  0  0  0  0
   -2.0719   -0.2723   28.0037 C   0  0  0  0  0  0  0  0  0  0  0  0
   -2.8642   -1.1976   26.1391 C   0  0  0  0  0  0  0  0  0  0  0  0
   -1.8317   -0.6663   26.9214 C   0  0  0  0  0  0  0  0  0  0  0  0
   -5.1366   -1.8955   25.8629 C   0  0  0  0  0  0  0  0  0  0  0  0
   -5.1493   -3.2763   25.9179 C   0  0  0  0  0  0  0  0  0  0  0  0
   -6.1467   -3.9938   25.2955 C   0  0  0  0  0  0  0  0  0  0  0  0
   -7.1628   -3.2971   24.6293 C   0  0  0  0  0  0  0  0  0  0  0  0
   -7.0254   -2.1294   24.5274 C   0  0  0  0  0  0  0  0  0  0  0  0
   -6.0819   -1.2415   25.1640 C   0  0  0  0  0  0  0  0  0  0  0  0
  -10.9977    4.7746   25.2329 C   0  0  2  0  0  0  0  0  0  0  0  0
  -12.1766    4.1324   25.5630 C   0  0  0  0  0  0  0  0  0  0  0  0
  -12.5177    3.9307   26.8713 C   0  0  0  0  0  0  0  0  0  0  0  0
  -13.8273    3.4704   27.2302 C   0  0  0  0  0  0  0  0  0  0  0  0
  -14.6515    3.1311   26.1656 C   0  0  0  0  0  0  0  0  0  0  0  0
  -13.1561    3.8178   24.6191 C   0  0  0  0  0  0  0  0  0  0  0  0
  -14.3757    3.3639   24.8980 C   0  0  0  0  0  0  0  0  0  0  0  0
  -10.6289    4.9987   23.8616 C   0  0  0  0  0  0  0  0  0  0  0  0
  -10.6619    4.3144   22.8915 Cl  0  0  0  0  0  0  0  0  0  0  0  0
  1  7  1  0
 13 12  1  6
 13 14  1  0
 13 20  1  0
 13 21  1  0
 22 24  1  0
 23 24  1  0
 20 25  1  0
  5 31  1  0
 31 32  1  0
 31 38  1  6
 38 39  1  0
 20 23  1  0
 22 21  1  0
 25 26  2  0
 26 27  1  0
 27 28  2  0
 28 29  1  0
 29 30  2  0
 30 25  1  0
 32 33  2  0
 33 34  1  0
 34 35  2  0
 35 37  1  0
 37 36  2  0
 36 32  1  0
  7  8  2  0
  8 10  1  0
 10 12  2  0
 12 11  1  0
 11  9  2  0
  9  7  1  0
 14 15  2  0
 15 16  1  0
 16 17  2  0
 17 18  1  0
 18 19  2  0
 19 14  1  0
  1  2  2  0
  2  4  1  0
  4  6  2  0
  6  5  1  0
  5  3  2  0
  3  1  1  0
M  END
$$$$
