No_4755-complexes_sdf/6BKW-FPZ/2024-09-17-14-21-01/
     RDKit          3D

 13 14  0  0  0  0  0  0  0  0999 V2000
   -7.9040    3.9820   27.1177 C   0  0  0  0  0  0  0  0  0  0  0  0
   -7.8663    4.8694   27.9238 C   0  0  0  0  0  0  0  0  0  0  0  0
   -9.0491    3.8523   26.2542 C   0  0  0  0  0  0  0  0  0  0  0  0
   -9.4067    2.6808   25.6532 C   0  0  0  0  0  0  0  0  0  0  0  0
   -8.5276    6.1191   27.7061 C   0  0  0  0  0  0  0  0  0  0  0  0
   -8.8735    1.4981   26.1333 C   0  0  0  0  0  0  0  0  0  0  0  0
   -7.7349    1.5405   27.0386 C   0  0  0  0  0  0  0  0  0  0  0  0
   -7.3982    2.6877   27.6090 C   0  0  0  0  0  0  0  0  0  0  0  0
   -9.4905    6.2573   26.6237 C   0  0  0  0  0  0  0  0  0  0  0  0
   -9.7361    5.0739   25.9128 C   0  0  0  0  0  0  0  0  0  0  0  0
   -7.1059    0.2626   27.4221 C   0  0  0  0  0  0  0  0  0  0  0  0
   -7.7439   -0.8632   27.5826 N   0  0  0  0  0  0  0  0  0  0  0  0
   -7.1438   -1.9153   28.1225 C   0  0  0  0  0  0  0  0  0  0  0  0
  7 11  1  0
 11 12  2  3
 12 13  1  0
  3  4  1  0
  4  6  2  0
  6  7  1  0
  7  8  2  0
  8  1  1  0
  1  2  2  0
  2  5  1  0
  5  9  2  0
  9 10  1  0
 10  3  2  0
  3  1  1  0
M  END
$$$$
