No_436-complexes_sdf/6BKW-FPZ/2024-09-17-14-21-01/
     RDKit          3D

 14 16  0  0  0  0  0  0  0  0999 V2000
   -7.2496    3.8871   27.4508 C   0  0  0  0  0  0  0  0  0  0  0  0
   -8.5096    4.0291   27.2770 C   0  0  0  0  0  0  0  0  0  0  0  0
   -9.3502    2.8685   26.8763 C   0  0  0  0  0  0  0  0  0  0  0  0
   -6.4573    5.0085   27.9855 C   0  0  0  0  0  0  0  0  0  0  0  0
   -9.1243    5.2674   27.5163 C   0  0  0  0  0  0  0  0  0  0  0  0
   -8.4032    6.3854   27.8703 C   0  0  0  0  0  0  0  0  0  0  0  0
   -7.0896    6.2292   28.0937 C   0  0  0  0  0  0  0  0  0  0  0  0
   -8.7457    1.6476   26.7403 C   0  0  0  0  0  0  0  0  0  0  0  0
   -9.5064    0.4955   26.4066 C   0  0  0  0  0  0  0  0  0  0  0  0
   -8.8745   -0.7363   26.2500 C   0  0  0  0  0  0  0  0  0  0  0  0
   -7.4872   -0.8153   26.4614 C   0  0  0  0  0  0  0  0  0  0  0  0
   -6.7362    0.2511   26.7960 C   0  0  0  0  0  0  0  0  0  0  0  0
   -7.2865    1.4822   26.9780 C   0  0  0  0  0  0  0  0  0  0  0  0
   -6.6096    2.6473   27.3697 N   0  0  0  0  0  0  0  0  0  0  0  0
  2  3  2  0
  3  8  1  0
 13 14  1  0
 14  1  2  0
  8  9  2  0
  9 10  1  0
 10 11  2  0
 11 12  1  0
 12 13  2  0
 13  8  1  0
  1  2  1  0
  2  5  1  0
  5  6  2  0
  6  7  1  0
  7  4  2  0
  4  1  1  0
M  END
$$$$
