No_4330-complexes_sdf/6BKW-FPZ/2024-09-17-14-21-01/
     RDKit          3D

 19 20  0  0  0  0  0  0  0  0999 V2000
   -7.9040    3.9820   27.1177 C   0  0  0  0  0  0  0  0  0  0  0  0
   -8.2057    2.8231   26.8733 C   0  0  0  0  0  0  0  0  0  0  0  0
   -8.7695    5.0740   26.7916 C   0  0  0  0  0  0  0  0  0  0  0  0
   -8.4785    6.4289   27.2922 C   0  0  0  0  0  0  0  0  0  0  0  0
   -9.2529    2.3917   26.0668 C   0  0  0  0  0  0  0  0  0  0  0  0
  -10.1277    3.4333   25.7287 C   0  0  0  0  0  0  0  0  0  0  0  0
   -9.9101    4.7626   26.0802 C   0  0  0  0  0  0  0  0  0  0  0  0
   -7.1891    1.6728   27.2777 C   0  0  0  0  0  0  0  0  0  0  0  0
   -7.4413    0.3354   27.2588 C   0  0  0  0  0  0  0  0  0  0  0  0
   -6.5186   -0.5431   27.7328 C   0  0  0  0  0  0  0  0  0  0  0  0
   -5.2600   -0.0598   28.1994 C   0  0  0  0  0  0  0  0  0  0  0  0
   -5.0114    1.3186   28.1916 C   0  0  0  0  0  0  0  0  0  0  0  0
   -5.8894    2.1470   27.7726 C   0  0  0  0  0  0  0  0  0  0  0  0
   -4.0262   -1.3281   28.9015 Br  0  0  0  0  0  0  0  0  0  0  0  0
   -9.3332    7.4062   26.9963 O   0  0  0  0  0  0  0  0  0  0  0  0
   -7.3028    6.6939   27.8374 O   0  0  0  0  0  0  0  0  0  0  0  0
  -11.3074    3.1245   24.8901 C   0  0  0  0  0  0  0  0  0  0  0  0
  -12.4605    2.7760   25.4729 C   0  0  0  0  0  0  0  0  0  0  0  0
  -13.6084    2.5017   24.6640 C   0  0  0  0  0  0  0  0  0  0  0  0
  3  4  1  0
  2  8  1  0
 11 14  1  0
  4 15  2  0
  4 16  1  0
  6 17  1  0
 17 18  2  3
 18 19  1  0
  8  9  2  0
  9 10  1  0
 10 11  2  0
 11 12  1  0
 12 13  2  0
 13  8  1  0
  1  2  2  0
  2  5  1  0
  5  6  2  0
  6  7  1  0
  7  3  2  0
  3  1  1  0
M  END
$$$$
