No_4862-complexes_sdf/6BKW-FPZ/2024-09-17-14-21-01/
     RDKit          3D

 16 17  0  0  0  0  0  0  0  0999 V2000
   -7.2496    3.8871   27.4508 C   0  0  0  0  0  0  0  0  0  0  0  0
   -8.5096    4.0291   27.2770 C   0  0  0  0  0  0  0  0  0  0  0  0
   -9.2669    5.1645   27.5845 C   0  0  0  0  0  0  0  0  0  0  0  0
   -8.4566    6.3212   27.8001 C   0  0  0  0  0  0  0  0  0  0  0  0
   -6.4744    5.0029   27.8552 C   0  0  0  0  0  0  0  0  0  0  0  0
   -7.1338    6.2312   27.9553 C   0  0  0  0  0  0  0  0  0  0  0  0
   -9.3614    2.7712   27.0027 C   0  0  0  0  0  0  0  0  0  0  0  0
   -8.7390    1.5796   27.0591 C   0  0  0  0  0  0  0  0  0  0  0  0
   -9.4690    0.4882   26.6929 C   0  0  0  0  0  0  0  0  0  0  0  0
  -10.8525    0.5926   26.4618 C   0  0  0  0  0  0  0  0  0  0  0  0
  -10.6647    2.6903   26.7381 C   0  0  0  0  0  0  0  0  0  0  0  0
  -11.4260    1.7060   26.5283 C   0  0  0  0  0  0  0  0  0  0  0  0
   -8.7414   -0.8681   26.6426 C   0  0  0  0  0  0  0  0  0  0  0  0
   -8.3614   -1.3471   27.7186 C   0  0  0  0  0  0  0  0  0  0  0  0
   -7.6686   -2.2122   28.1608 C   0  0  0  0  0  0  0  0  0  0  0  0
   -7.0976   -2.4713   29.0815 C   0  0  0  0  0  0  0  0  0  0  0  0
  2  7  1  0
  9 13  1  0
 13 14  2  3
 14 15  1  0
 15 16  2  0
  7  8  2  0
  8  9  1  0
  9 10  2  0
 10 12  1  0
 12 11  2  0
 11  7  1  0
  1  2  2  0
  2  3  1  0
  3  4  2  0
  4  6  1  0
  6  5  2  0
  5  1  1  0
M  END
$$$$
