No_4286-complexes_sdf/6BKW-FPZ/2024-09-17-14-21-01/
     RDKit          3D

 16 17  0  0  0  0  0  0  0  0999 V2000
   -7.7129    4.2099   27.0854 C   0  0  0  0  0  0  0  0  0  0  0  0
   -7.7814    5.1722   27.8972 C   0  0  0  0  0  0  0  0  0  0  0  0
   -8.8255    3.2789   27.1191 C   0  0  0  0  0  0  0  0  0  0  0  0
   -9.9209    3.4734   27.9101 C   0  0  0  0  0  0  0  0  0  0  0  0
   -9.9736    4.7085   28.6831 C   0  0  0  0  0  0  0  0  0  0  0  0
   -8.8840    5.5441   28.6612 C   0  0  0  0  0  0  0  0  0  0  0  0
   -8.7102    2.0171   26.3293 C   0  0  0  0  0  0  0  0  0  0  0  0
   -9.2398    1.9393   25.1560 N   0  0  0  0  0  0  0  0  0  0  0  0
   -9.0929    0.8012   24.4523 C   0  0  0  0  0  0  0  0  0  0  0  0
   -7.9501    0.9582   26.8441 C   0  0  0  0  0  0  0  0  0  0  0  0
   -7.7650   -0.1942   26.1696 C   0  0  0  0  0  0  0  0  0  0  0  0
   -8.3832   -0.2402   24.9131 C   0  0  0  0  0  0  0  0  0  0  0  0
   -9.7253    0.8099   23.1079 C   0  0  0  0  0  0  0  0  0  0  0  0
  -10.0278    1.9773   22.5186 C   0  0  0  0  0  0  0  0  0  0  0  0
  -10.6164    2.0055   21.1930 C   0  0  0  0  0  0  0  0  0  0  0  0
  -10.7644    0.8189   20.5008 C   0  0  0  0  0  0  0  0  0  0  0  0
  3  7  1  0
  9 13  1  0
 13 14  2  3
 14 15  1  0
 15 16  2  0
  1  2  2  0
  2  6  1  0
  6  5  2  0
  5  4  1  0
  4  3  2  0
  3  1  1  0
  7  8  2  0
  8  9  1  0
  9 12  2  0
 12 11  1  0
 11 10  2  0
 10  7  1  0
M  END
$$$$
