No_4553-complexes_sdf/6BKW-FPZ/2024-09-17-14-21-01/
     RDKit          3D

 21 24  0  0  0  0  0  0  0  0999 V2000
   -7.2496    3.8871   27.4508 C   0  0  0  0  0  0  0  0  0  0  0  0
   -7.9379    4.9063   27.8518 C   0  0  0  0  0  0  0  0  0  0  0  0
   -9.3376    4.8647   27.7795 C   0  0  0  0  0  0  0  0  0  0  0  0
   -7.8544    2.6294   27.0414 C   0  0  0  0  0  0  0  0  0  0  0  0
   -7.1614    1.5016   26.7557 C   0  0  0  0  0  0  0  0  0  0  0  0
   -9.2798    2.6027   27.0393 C   0  0  0  0  0  0  0  0  0  0  0  0
  -10.0077    3.7290   27.4379 C   0  0  0  0  0  0  0  0  0  0  0  0
   -6.0454    1.1316   27.6313 C   0  0  0  0  0  0  0  0  0  0  0  0
   -5.4996    0.0671   27.6894 C   0  0  0  0  0  0  0  0  0  0  0  0
   -5.9548   -0.9834   26.9011 C   0  0  0  0  0  0  0  0  0  0  0  0
   -7.6573    0.3943   26.1303 C   0  0  0  0  0  0  0  0  0  0  0  0
   -8.8472    0.6008   25.3426 C   0  0  0  0  0  0  0  0  0  0  0  0
   -7.0540   -0.7964   26.0846 C   0  0  0  0  0  0  0  0  0  0  0  0
   -9.9602    1.6168   26.2231 C   0  0  0  0  0  0  0  0  0  0  0  0
   -7.3310    6.0859   28.2715 N   0  0  0  0  0  0  0  0  0  0  0  0
   -4.2175   -0.1452   28.5292 C   0  0  0  0  0  0  0  0  0  0  0  0
   -4.3238    0.2685   29.8575 C   0  0  0  0  0  0  0  0  0  0  0  0
   -3.0440   -0.6908   28.0511 C   0  0  0  0  0  0  0  0  0  0  0  0
   -3.4118   -0.1757   30.8726 C   0  0  0  0  0  0  0  0  0  0  0  0
   -2.1924   -0.8135   30.3889 C   0  0  0  0  0  0  0  0  0  0  0  0
   -2.0430   -1.0721   29.0083 C   0  0  0  0  0  0  0  0  0  0  0  0
  4  5  1  0
 11 12  1  0
  6 14  1  0
 12 14  1  0
  2 15  1  0
  9 16  1  0
  5  8  2  0
  8  9  1  0
  9 10  2  0
 10 13  1  0
 13 11  2  0
 11  5  1  0
 16 17  2  0
 17 19  1  0
 19 20  2  0
 20 21  1  0
 21 18  2  0
 18 16  1  0
  1  2  2  0
  2  3  1  0
  3  7  2  0
  7  6  1  0
  6  4  2  0
  4  1  1  0
M  END
$$$$
