No_4901-complexes_sdf/6BKW-FPZ/2024-09-17-14-21-01/
     RDKit          3D

 20 22  0  0  0  0  0  0  0  0999 V2000
   -7.9040    3.9820   27.1177 C   0  0  0  0  0  0  0  0  0  0  0  0
   -9.0711    4.3164   27.0630 C   0  0  0  0  0  0  0  0  0  0  0  0
   -9.5294    5.4517   27.7215 C   0  0  0  0  0  0  0  0  0  0  0  0
   -7.4336    2.7132   26.5681 C   0  0  0  0  0  0  0  0  0  0  0  0
   -8.3353    1.8569   26.0442 C   0  0  0  0  0  0  0  0  0  0  0  0
   -7.9243    0.5609   25.6726 C   0  0  0  0  0  0  0  0  0  0  0  0
  -10.0396    3.4856   26.3639 C   0  0  2  0  0  0  0  0  0  0  0  0
   -9.6183    2.2835   25.9020 C   0  0  0  0  0  0  0  0  0  0  0  0
   -7.0148   -0.0105   26.1814 O   0  0  0  0  0  0  0  0  0  0  0  0
   -8.5005    0.0516   24.5528 O   0  0  0  0  0  0  0  0  0  0  0  0
   -6.8542    4.7365   27.9455 C   0  0  0  0  0  0  0  0  0  0  0  0
   -7.3206    5.9078   28.4848 N   0  0  0  0  0  0  0  0  0  0  0  0
   -8.6057    6.2963   28.3160 C   0  0  0  0  0  0  0  0  0  0  0  0
   -5.6631    4.3430   28.1181 N   0  0  0  0  0  0  0  0  0  0  0  0
  -11.1602    4.0626   25.8450 C   0  0  0  0  0  0  0  0  0  0  0  0
  -12.1898    3.9919   26.3090 C   0  0  0  0  0  0  0  0  0  0  0  0
  -13.5070    4.4329   25.7452 C   0  0  0  0  0  0  0  0  0  0  0  0
  -13.4595    4.7243   24.3681 C   0  0  0  0  0  0  0  0  0  0  0  0
  -12.1746    4.7007   23.7049 C   0  0  0  0  0  0  0  0  0  0  0  0
  -11.0214    4.3146   24.3961 C   0  0  0  0  0  0  0  0  0  0  0  0
  1  4  1  0
  4  5  1  0
  5  6  1  0
  2  7  1  0
  5  8  1  0
  7  8  1  0
  6  9  2  0
  6 10  1  0
 11 14  1  0
  7 15  1  6
 15 16  2  0
 16 17  1  0
 17 18  2  0
 18 19  1  0
 19 20  2  0
 20 15  1  0
  1  2  1  0
  2  3  2  0
  3 13  1  0
 13 12  2  0
 12 11  1  0
 11  1  2  0
M  END
$$$$
