No_4880-complexes_sdf/6BKW-FPZ/2024-09-17-14-21-01/
     RDKit          3D

 30 33  0  0  0  0  0  0  0  0999 V2000
   -7.9040    3.9820   27.1177 C   0  0  0  0  0  0  0  0  0  0  0  0
   -8.2057    2.8231   26.8733 C   0  0  0  0  0  0  0  0  0  0  0  0
   -8.7695    5.0740   26.7916 C   0  0  0  0  0  0  0  0  0  0  0  0
   -9.9618    4.7598   26.1630 C   0  0  0  0  0  0  0  0  0  0  0  0
   -9.4200    2.4524   26.2849 C   0  0  0  0  0  0  0  0  0  0  0  0
  -10.2590    3.4815   25.9250 C   0  0  0  0  0  0  0  0  0  0  0  0
   -8.3837    6.4702   27.0872 C   0  0  0  0  0  0  0  0  0  0  0  0
   -7.4020    6.7193   26.8450 F   0  0  0  0  0  0  0  0  0  0  0  0
   -8.7909    6.6979   28.4618 F   0  0  0  0  0  0  0  0  0  0  0  0
   -9.2344    7.3121   26.3846 F   0  0  0  0  0  0  0  0  0  0  0  0
   -7.2621    1.6870   27.3127 C   0  0  0  0  0  0  0  0  0  0  0  0
   -7.6229    0.3174   27.2583 C   0  0  0  0  0  0  0  0  0  0  0  0
   -6.7176   -0.6235   27.6754 C   0  0  0  0  0  0  0  0  0  0  0  0
   -5.4165   -0.2028   28.1058 C   0  0  0  0  0  0  0  0  0  0  0  0
   -5.0813    1.1545   28.0991 C   0  0  0  0  0  0  0  0  0  0  0  0
   -5.9294    2.0584   27.7330 C   0  0  0  0  0  0  0  0  0  0  0  0
   -4.4670   -1.2445   28.6108 C   0  0  0  0  0  0  0  0  0  0  0  0
   -3.3596   -1.2138   28.2506 C   0  0  0  0  0  0  0  0  0  0  0  0
   -2.2961   -2.1388   28.7936 C   0  0  0  0  0  0  0  0  0  0  0  0
   -2.7494   -3.0683   29.7022 C   0  0  0  0  0  0  0  0  0  0  0  0
   -4.7977   -2.1530   29.6572 C   0  0  0  0  0  0  0  0  0  0  0  0
   -3.9965   -3.0100   30.1909 C   0  0  0  0  0  0  0  0  0  0  0  0
  -11.5083    3.2049   25.1868 C   0  0  0  0  0  0  0  0  0  0  0  0
  -12.5954    2.9565   25.8406 C   0  0  0  0  0  0  0  0  0  0  0  0
  -12.5761    2.9681   27.2939 C   0  0  0  0  0  0  0  0  0  0  0  0
  -13.8079    2.7622   28.0561 C   0  0  0  0  0  0  0  0  0  0  0  0
  -13.6831    2.7816   29.4742 C   0  0  0  0  0  0  0  0  0  0  0  0
  -12.4100    3.0332   30.0488 C   0  0  0  0  0  0  0  0  0  0  0  0
  -11.3143    3.3033   29.2430 C   0  0  0  0  0  0  0  0  0  0  0  0
  -11.4239    3.3091   27.9159 C   0  0  0  0  0  0  0  0  0  0  0  0
  3  7  1  0
  7  8  1  0
  7  9  1  0
  7 10  1  0
  2 11  1  0
 14 17  1  0
  6 23  1  0
 23 24  2  3
 24 25  1  0
 11 12  2  0
 12 13  1  0
 13 14  2  0
 14 15  1  0
 15 16  2  0
 16 11  1  0
 17 18  2  0
 18 19  1  0
 19 20  2  0
 20 22  1  0
 22 21  2  0
 21 17  1  0
  1  2  2  0
  2  5  1  0
  5  6  2  0
  6  4  1  0
  4  3  2  0
  3  1  1  0
 25 26  2  0
 26 27  1  0
 27 28  2  0
 28 29  1  0
 29 30  2  0
 30 25  1  0
M  END
$$$$
