No_4736-complexes_sdf/6BKW-FPZ/2024-09-17-14-21-01/
     RDKit          3D

 20 22  0  0  0  0  0  0  0  0999 V2000
   -7.2496    3.8871   27.4508 C   0  0  0  0  0  0  0  0  0  0  0  0
   -8.5096    4.0291   27.2770 C   0  0  0  0  0  0  0  0  0  0  0  0
   -9.2669    5.1645   27.5845 C   0  0  0  0  0  0  0  0  0  0  0  0
  -10.6621    5.2321   27.4284 C   0  0  0  0  0  0  0  0  0  0  0  0
   -9.2095    2.9872   26.5061 C   0  0  0  0  0  0  0  0  0  0  0  0
  -10.5753    3.0643   26.2613 C   0  0  1  0  0  0  0  0  0  0  0  0
  -11.3198    4.1684   26.7700 C   0  0  2  0  0  0  0  0  0  0  0  0
   -6.6048    2.6707   27.3845 N   0  0  0  0  0  0  0  0  0  0  0  0
   -7.1831    1.5441   26.9991 C   0  0  0  0  0  0  0  0  0  0  0  0
   -8.5648    1.7334   26.3600 C   0  0  0  0  0  0  0  0  0  0  0  0
   -6.5085    4.8535   28.1339 N   0  0  0  0  0  0  0  0  0  0  0  0
  -11.2422    2.1440   25.4634 C   0  0  0  0  0  0  0  0  0  0  0  0
  -11.0017    2.1588   24.0530 C   0  0  0  0  0  0  0  0  0  0  0  0
  -11.3768    1.1585   23.2254 C   0  0  0  0  0  0  0  0  0  0  0  0
  -12.2505    0.3474   23.6226 C   0  0  0  0  0  0  0  0  0  0  0  0
  -12.0279    1.1252   25.8463 C   0  0  0  0  0  0  0  0  0  0  0  0
  -12.5486    0.1795   25.0125 C   0  0  0  0  0  0  0  0  0  0  0  0
  -12.7288    4.2815   26.5319 C   0  0  0  0  0  0  0  0  0  0  0  0
  -13.4452   -0.8619   25.4520 C   0  0  0  0  0  0  0  0  0  0  0  0
  -13.4703   -1.2135   26.7688 C   0  0  0  0  0  0  0  0  0  0  0  0
  2  3  1  0
  3  4  1  0
  5  6  1  0
  4  7  1  0
  6  7  1  0
  1 11  1  0
  6 12  1  6
  7 18  1  6
 17 19  1  0
 19 20  2  0
 12 13  2  0
 13 14  1  0
 14 15  2  0
 15 17  1  0
 17 16  2  0
 16 12  1  0
  1  2  2  0
  2  5  1  0
  5 10  2  0
 10  9  1  0
  9  8  2  0
  8  1  1  0
M  END
$$$$
