No_4769-complexes_sdf/6BKW-FPZ/2024-09-17-14-21-01/
     RDKit          3D

 29 33  0  0  0  0  0  0  0  0999 V2000
   -7.2496    3.8871   27.4508 C   0  0  0  0  0  0  0  0  0  0  0  0
   -7.9379    4.9063   27.8518 C   0  0  0  0  0  0  0  0  0  0  0  0
   -7.5112    6.1898   27.6280 C   0  0  0  0  0  0  0  0  0  0  0  0
   -7.8078    2.6331   27.2522 C   0  0  0  0  0  0  0  0  0  0  0  0
   -7.1538    1.5087   26.7509 C   0  0  0  0  0  0  0  0  0  0  0  0
   -9.2627    2.5305   27.2363 C   0  0  0  0  0  0  0  0  0  0  0  0
   -9.8316    1.3863   26.9098 C   0  0  0  0  0  0  0  0  0  0  0  0
   -7.7292    0.3404   26.4662 C   0  0  0  0  0  0  0  0  0  0  0  0
  -11.3124    1.2479   27.1467 C   0  0  0  0  0  0  0  0  0  0  0  0
   -9.1176    0.2658   26.6310 C   0  0  0  0  0  0  0  0  0  0  0  0
  -12.0857    2.2219   27.2964 N   0  0  0  0  0  0  0  0  0  0  0  0
  -13.2204    2.2292   27.8775 C   0  0  0  0  0  0  0  0  0  0  0  0
  -11.8230    0.0770   27.3050 O   0  0  0  0  0  0  0  0  0  0  0  0
  -13.7160    2.0492   28.7573 C   0  0  0  0  0  0  0  0  0  0  0  0
  -14.5618    2.3120   29.5786 C   0  0  0  0  0  0  0  0  0  0  0  0
  -15.5301    3.3054   29.0933 C   0  0  0  0  0  0  0  0  0  0  0  0
  -15.2261    3.8677   27.8563 C   0  0  0  0  0  0  0  0  0  0  0  0
  -13.9727    3.5693   27.2695 C   0  0  0  0  0  0  0  0  0  0  0  0
   -8.4861    7.2158   27.4914 C   0  0  0  0  0  0  0  0  0  0  0  0
   -9.8563    6.7936   27.3121 C   0  0  0  0  0  0  0  0  0  0  0  0
  -10.2351    5.4928   27.5774 C   0  0  0  0  0  0  0  0  0  0  0  0
   -9.3340    4.6055   27.8055 C   0  0  0  0  0  0  0  0  0  0  0  0
   -9.7630    3.3637   27.7088 N   0  0  0  0  0  0  0  0  0  0  0  0
   -6.9398   -0.8133   26.0643 C   0  0  0  0  0  0  0  0  0  0  0  0
   -7.3260   -1.4601   25.0873 C   0  0  0  0  0  0  0  0  0  0  0  0
   -6.4923   -2.4434   24.5224 C   0  0  0  0  0  0  0  0  0  0  0  0
   -5.2454   -2.7400   25.1507 C   0  0  0  0  0  0  0  0  0  0  0  0
   -4.9253   -1.9994   26.1335 C   0  0  0  0  0  0  0  0  0  0  0  0
   -5.6368   -0.9579   26.6470 C   0  0  0  0  0  0  0  0  0  0  0  0
  7  9  1  0
  9 11  1  0
 11 12  1  0
  9 13  2  0
  8 24  1  0
  1  2  2  0
 22 23  2  0
 23  6  1  0
  4  1  1  0
 24 25  2  0
 25 26  1  0
 26 27  2  0
 27 28  1  0
 28 29  2  0
 29 24  1  0
 12 14  2  0
 14 15  1  0
 15 16  2  0
 16 17  1  0
 17 18  2  0
 18 12  1  0
  4  5  2  0
  5  8  1  0
  8 10  2  0
 10  7  1  0
  7  6  2  0
  6  4  1  0
  2  3  1  0
  3 19  2  0
 19 20  1  0
 20 21  2  0
 21 22  1  0
 22  2  1  0
M  END
$$$$
