No_4012-complexes_sdf/6BKW-FPZ/2024-09-17-14-21-01/
     RDKit          3D

 40 43  0  0  0  0  0  0  0  0999 V2000
   -7.7129    4.2099   27.0854 C   0  0  0  0  0  0  0  0  0  0  0  0
   -7.7814    5.1722   27.8972 C   0  0  0  0  0  0  0  0  0  0  0  0
   -8.8998    3.8713   26.3707 C   0  0  0  0  0  0  0  0  0  0  0  0
   -8.9563    2.6796   25.5490 C   0  0  0  0  0  0  0  0  0  0  0  0
   -8.8501    6.0071   27.8467 N   0  0  0  0  0  0  0  0  0  0  0  0
   -9.9490    5.7837   27.2002 C   0  0  0  0  0  0  0  0  0  0  0  0
   -9.9821    4.6597   26.4501 C   0  0  0  0  0  0  0  0  0  0  0  0
   -9.8040    2.5482   24.5570 N   0  0  0  0  0  0  0  0  0  0  0  0
   -9.7687    1.5309   23.7027 C   0  0  0  0  0  0  0  0  0  0  0  0
   -8.1531    1.7357   25.7785 O   0  0  0  0  0  0  0  0  0  0  0  0
   -6.7151    5.6066   28.6511 N   0  0  0  0  0  0  0  0  0  0  0  0
  -10.9846    0.8058   23.6046 C   0  0  0  0  0  0  0  0  0  0  0  0
  -12.0730    1.1171   23.7021 C   0  0  0  0  0  0  0  0  0  0  0  0
  -13.1826    0.2520   23.7230 C   0  0  0  0  0  0  0  0  0  0  0  0
  -12.9553   -1.0605   23.3368 C   0  0  0  0  0  0  0  0  0  0  0  0
  -11.7146   -1.5012   23.0718 C   0  0  0  0  0  0  0  0  0  0  0  0
  -10.5837   -0.6595   23.1962 C   0  0  0  0  0  0  0  0  0  0  0  0
  -14.0786   -2.0283   23.2196 C   0  0  0  0  0  0  0  0  0  0  0  0
  -15.0603   -1.9360   24.1090 C   0  0  0  0  0  0  0  0  0  0  0  0
  -16.0548   -2.8866   24.1712 C   0  0  0  0  0  0  0  0  0  0  0  0
  -16.0239   -3.9096   23.1786 C   0  0  0  0  0  0  0  0  0  0  0  0
  -15.0141   -3.9465   22.2760 C   0  0  0  0  0  0  0  0  0  0  0  0
  -13.9627   -3.0386   22.3308 C   0  0  0  0  0  0  0  0  0  0  0  0
  -14.9596   -5.0301   21.2961 C   0  0  0  0  0  0  0  0  0  0  0  0
  -15.7808   -5.5642   20.7441 O   0  0  0  0  0  0  0  0  0  0  0  0
  -13.6539   -5.1031   20.7173 O   0  0  0  0  0  0  0  0  0  0  0  0
  -17.3466   -2.7656   25.2374 Cl  0  0  0  0  0  0  0  0  0  0  0  0
  -13.3524   -6.1547   19.9784 C   0  0  1  0  0  0  0  0  0  0  0  0
  -13.3967   -5.9359   18.6643 C   0  0  0  0  0  0  0  0  0  0  0  0
  -13.3472   -4.8675   18.1974 O   0  0  0  0  0  0  0  0  0  0  0  0
  -13.9408   -6.9232   17.8979 O   0  0  0  0  0  0  0  0  0  0  0  0
  -11.8361   -6.4172   20.4209 C   0  0  0  0  0  0  0  0  0  0  0  0
  -11.2533   -7.3322   20.3909 C   0  0  0  0  0  0  0  0  0  0  0  0
   -9.8473   -7.4880   20.7888 C   0  0  0  0  0  0  0  0  0  0  0  0
   -9.2025   -6.3832   21.3018 C   0  0  0  0  0  0  0  0  0  0  0  0
   -9.8820   -5.1631   21.4004 C   0  0  0  0  0  0  0  0  0  0  0  0
  -11.2001   -5.1222   21.0166 C   0  0  0  0  0  0  0  0  0  0  0  0
   -9.2120   -3.9762   21.9436 C   0  0  0  0  0  0  0  0  0  0  0  0
   -8.5456   -3.1407   20.9319 C   0  0  0  0  0  0  0  0  0  0  0  0
   -7.2058   -3.1311   20.9104 C   0  0  0  0  0  0  0  0  0  0  0  0
  3  4  1  0
  4  8  1  0
  8  9  1  0
  4 10  2  0
  2 11  1  0
  9 12  1  0
 15 18  1  0
 22 24  1  0
 24 25  2  0
 24 26  1  0
 20 27  1  0
 28 26  1  1
 28 29  1  0
 29 30  2  0
 29 31  1  0
 28 32  1  0
 36 38  1  0
 38 39  1  0
 39 40  1  0
 12 13  2  0
 13 14  1  0
 14 15  2  0
 15 16  1  0
 16 17  2  0
 17 12  1  0
 32 33  2  0
 33 34  1  0
 34 35  2  0
 35 36  1  0
 36 37  2  0
 37 32  1  0
 18 19  2  0
 19 20  1  0
 20 21  2  0
 21 22  1  0
 22 23  2  0
 23 18  1  0
  1  2  2  0
  2  5  1  0
  5  6  2  0
  6  7  1  0
  7  3  2  0
  3  1  1  0
M  END
$$$$
