No_4483-complexes_sdf/6BKW-FPZ/2024-09-17-14-21-01/
     RDKit          3D

 12 12  0  0  0  0  0  0  0  0999 V2000
   -7.2496    3.8871   27.4508 C   0  0  0  0  0  0  0  0  0  0  0  0
   -8.5096    4.0291   27.2770 C   0  0  0  0  0  0  0  0  0  0  0  0
   -9.2677    5.1714   27.5773 C   0  0  0  0  0  0  0  0  0  0  0  0
   -9.2765    2.8248   26.8371 C   0  0  0  0  0  0  0  0  0  0  0  0
  -10.4623    3.0171   26.3237 C   0  0  0  0  0  0  0  0  0  0  0  0
  -10.8972    2.6250   25.3350 C   0  0  0  0  0  0  0  0  0  0  0  0
  -10.0294    1.7957   24.4945 C   0  0  0  0  0  0  0  0  0  0  0  0
   -6.5412    2.6535   27.4188 C   0  0  0  0  0  0  0  0  0  0  0  0
  -10.4653    1.1947   23.3058 C   0  0  0  0  0  0  0  0  0  0  0  0
   -7.2729    1.5038   27.0960 C   0  0  0  0  0  0  0  0  0  0  0  0
   -8.5707    1.6319   26.6999 C   0  0  0  0  0  0  0  0  0  0  0  0
  -11.7389    1.3047   23.1091 C   0  0  0  0  0  0  0  0  0  0  0  0
  2  3  1  0
  4  5  1  0
  5  6  2  3
  6  7  1  0
  7  9  2  3
  9 12  1  0
  1  2  2  0
  2  4  1  0
  4 11  2  0
 11 10  1  0
 10  8  2  0
  8  1  1  0
M  END
$$$$
