No_4094-complexes_sdf/6BKW-FPZ/2024-09-17-14-21-01/
     RDKit          3D

 12 13  0  0  0  0  0  0  0  0999 V2000
   -7.2496    3.8871   27.4508 C   0  0  0  0  0  0  0  0  0  0  0  0
   -7.9379    4.9063   27.8518 C   0  0  0  0  0  0  0  0  0  0  0  0
   -9.3376    4.8647   27.7795 C   0  0  0  0  0  0  0  0  0  0  0  0
   -7.8544    2.6294   27.0414 C   0  0  0  0  0  0  0  0  0  0  0  0
   -9.2665    2.6175   27.0340 C   0  0  0  0  0  0  0  0  0  0  0  0
   -9.9836    3.7042   27.4150 C   0  0  0  0  0  0  0  0  0  0  0  0
   -7.2589    1.4023   26.8034 C   0  0  0  0  0  0  0  0  0  0  0  0
   -6.0587    1.0954   27.5646 C   0  0  0  0  0  0  0  0  0  0  0  0
   -5.4095   -0.1028   27.4563 C   0  0  0  0  0  0  0  0  0  0  0  0
   -5.9465   -1.0471   26.6558 C   0  0  0  0  0  0  0  0  0  0  0  0
   -7.6170    0.2851   26.1474 C   0  0  0  0  0  0  0  0  0  0  0  0
   -7.0850   -0.8425   26.0019 C   0  0  0  0  0  0  0  0  0  0  0  0
  4  7  1  0
  7  8  2  0
  8  9  1  0
  9 10  2  0
 10 12  1  0
 12 11  2  0
 11  7  1  0
  1  2  2  0
  2  3  1  0
  3  6  2  0
  6  5  1  0
  5  4  2  0
  4  1  1  0
M  END
$$$$
