No_4236-complexes_sdf/6BKW-FPZ/2024-09-17-14-21-01/
     RDKit          3D

 16 18  0  0  0  0  0  0  0  0999 V2000
   -7.9040    3.9820   27.1177 C   0  0  0  0  0  0  0  0  0  0  0  0
   -7.8663    4.8694   27.9238 C   0  0  0  0  0  0  0  0  0  0  0  0
   -9.0501    3.8017   26.2617 C   0  0  0  0  0  0  0  0  0  0  0  0
  -10.0189    4.7608   26.3707 C   0  0  0  0  0  0  0  0  0  0  0  0
   -8.6973    5.9722   27.8968 C   0  0  0  0  0  0  0  0  0  0  0  0
   -9.8216    5.8946   27.1241 C   0  0  0  0  0  0  0  0  0  0  0  0
   -9.1437    2.6293   25.4175 C   0  0  0  0  0  0  0  0  0  0  0  0
   -8.6170    1.4258   25.8177 C   0  0  0  0  0  0  0  0  0  0  0  0
   -8.0311    1.3669   27.1547 C   0  0  0  0  0  0  0  0  0  0  0  0
   -7.3950    2.6332   27.6186 C   0  0  0  0  0  0  0  0  0  0  0  0
  -10.0586    2.6717   24.3064 C   0  0  0  0  0  0  0  0  0  0  0  0
   -9.9549    1.6979   23.3227 C   0  0  0  0  0  0  0  0  0  0  0  0
  -10.6594    1.7973   22.1251 C   0  0  0  0  0  0  0  0  0  0  0  0
  -11.4449    2.9448   21.9324 C   0  0  0  0  0  0  0  0  0  0  0  0
  -11.5200    3.9499   22.8814 C   0  0  0  0  0  0  0  0  0  0  0  0
  -10.7747    3.9035   24.0062 C   0  0  0  0  0  0  0  0  0  0  0  0
  7 11  1  0
 11 12  2  0
 12 13  1  0
 13 14  2  0
 14 15  1  0
 15 16  2  0
 16 11  1  0
  3  7  1  0
  7  8  2  0
  8  9  1  0
  9 10  2  0
 10  1  1  0
  1  2  2  0
  2  5  1  0
  5  6  2  0
  6  4  1  0
  4  3  2  0
  3  1  1  0
M  END
$$$$
