No_4723-complexes_sdf/6BKW-FPZ/2024-09-17-14-21-01/
     RDKit          3D

 13 13  0  0  0  0  0  0  0  0999 V2000
   -7.7129    4.2099   27.0854 C   0  0  0  0  0  0  0  0  0  0  0  0
   -8.9133    4.4736   27.0998 C   0  0  0  0  0  0  0  0  0  0  0  0
   -9.8363    3.8127   27.2418 C   0  0  0  0  0  0  0  0  0  0  0  0
   -7.2995    2.8520   27.3808 C   0  0  0  0  0  0  0  0  0  0  0  0
   -8.3226    1.9328   27.4680 C   0  0  0  0  0  0  0  0  0  0  0  0
   -9.5955    2.3639   27.4416 C   0  0  0  0  0  0  0  0  0  0  0  0
   -9.1681    6.0379   26.9266 C   0  0  0  0  0  0  0  0  0  0  0  0
   -9.7970    6.4978   27.8617 F   0  0  0  0  0  0  0  0  0  0  0  0
   -9.7150    6.3041   25.7121 F   0  0  0  0  0  0  0  0  0  0  0  0
   -7.9580    6.8085   26.8944 F   0  0  0  0  0  0  0  0  0  0  0  0
   -7.9818    0.5281   27.6300 C   0  0  0  0  0  0  0  0  0  0  0  0
   -9.0059   -0.4665   27.6244 C   0  0  0  0  0  0  0  0  0  0  0  0
  -10.3357   -0.0440   27.4176 C   0  0  0  0  0  0  0  0  0  0  0  0
  2  7  1  0
  7  8  1  0
  7  9  1  0
  7 10  1  0
  5 11  1  0
 11 12  2  3
 12 13  1  0
  1  2  2  0
  2  3  1  0
  3  6  2  0
  6  5  1  0
  5  4  2  0
  4  1  1  0
M  END
$$$$
