No_4443-complexes_sdf/6BKW-FPZ/2024-09-17-14-21-01/
     RDKit          3D

 15 16  0  0  0  0  0  0  0  0999 V2000
   -7.9040    3.9820   27.1177 C   0  0  0  0  0  0  0  0  0  0  0  0
   -9.0711    4.3164   27.0630 C   0  0  0  0  0  0  0  0  0  0  0  0
  -10.0395    3.8218   27.1938 C   0  0  0  0  0  0  0  0  0  0  0  0
   -7.6424    2.5858   27.3610 C   0  0  0  0  0  0  0  0  0  0  0  0
   -8.7741    1.7889   27.4566 C   0  0  0  0  0  0  0  0  0  0  0  0
  -10.0155    2.3581   27.4300 C   0  0  0  0  0  0  0  0  0  0  0  0
  -11.2141    1.4842   27.6314 C   0  0  0  0  0  0  0  0  0  0  0  0
  -11.9763    1.0748   26.6406 C   0  0  0  0  0  0  0  0  0  0  0  0
  -13.0877    0.2282   26.9588 C   0  0  0  0  0  0  0  0  0  0  0  0
  -13.2344   -0.0251   28.1561 C   0  0  0  0  0  0  0  0  0  0  0  0
  -12.5516    0.3523   29.3001 C   0  0  0  0  0  0  0  0  0  0  0  0
  -11.4810    1.1892   29.0788 C   0  0  0  0  0  0  0  0  0  0  0  0
   -9.1421    6.2139   26.8119 Cl  0  0  0  0  0  0  0  0  0  0  0  0
   -6.0794    1.9027   27.3826 Cl  0  0  0  0  0  0  0  0  0  0  0  0
  -14.6940   -1.1192   28.5428 Cl  0  0  0  0  0  0  0  0  0  0  0  0
  6  7  1  0
  2 13  1  0
  4 14  1  0
 10 15  1  0
  1  2  2  0
  2  3  1  0
  3  6  2  0
  6  5  1  0
  5  4  2  0
  4  1  1  0
  7  8  2  0
  8  9  1  0
  9 10  2  0
 10 11  1  0
 11 12  2  0
 12  7  1  0
M  END
$$$$
