No_4090-complexes_sdf/6BKW-FPZ/2024-09-17-14-21-01/
     RDKit          3D

 16 17  0  0  0  0  0  0  0  0999 V2000
   -7.7129    4.2099   27.0854 C   0  0  0  0  0  0  0  0  0  0  0  0
   -8.9133    4.4736   27.0998 C   0  0  0  0  0  0  0  0  0  0  0  0
   -9.7135    3.9633   26.0300 C   0  0  0  0  0  0  0  0  0  0  0  0
   -6.8420    4.9760   28.0851 C   0  0  0  0  0  0  0  0  0  0  0  0
  -10.9164    3.4776   26.1173 C   0  0  0  0  0  0  0  0  0  0  0  0
  -11.6897    3.8137   27.2914 C   0  0  0  0  0  0  0  0  0  0  0  0
  -10.9876    4.2901   28.4232 C   0  0  0  0  0  0  0  0  0  0  0  0
   -9.6492    4.5388   28.3533 C   0  0  0  0  0  0  0  0  0  0  0  0
  -13.1233    3.4856   27.4111 C   0  0  0  0  0  0  0  0  0  0  0  0
  -13.4730    2.7412   28.0509 C   0  0  0  0  0  0  0  0  0  0  0  0
  -14.8795    2.4489   28.2959 C   0  0  0  0  0  0  0  0  0  0  0  0
  -15.7653    3.1578   27.5029 C   0  0  0  0  0  0  0  0  0  0  0  0
  -14.0035    4.3641   26.6198 C   0  0  0  0  0  0  0  0  0  0  0  0
  -15.3218    4.1928   26.6794 C   0  0  0  0  0  0  0  0  0  0  0  0
   -7.2178    6.1215   28.3170 F   0  0  0  0  0  0  0  0  0  0  0  0
   -6.6657    4.2344   29.2169 F   0  0  0  0  0  0  0  0  0  0  0  0
  1  2  1  0
  1  4  1  0
  6  9  1  0
  4 15  1  0
  4 16  1  0
  2  3  2  0
  3  5  1  0
  5  6  2  0
  6  7  1  0
  7  8  2  0
  8  2  1  0
  9 10  2  0
 10 11  1  0
 11 12  2  0
 12 14  1  0
 14 13  2  0
 13  9  1  0
M  END
$$$$
