No_4894-complexes_sdf/6BKW-FPZ/2024-09-17-14-21-01/
     RDKit          3D

 23 25  0  0  0  0  0  0  0  0999 V2000
   -7.9040    3.9820   27.1177 C   0  0  0  0  0  0  0  0  0  0  0  0
   -8.2057    2.8231   26.8733 C   0  0  0  0  0  0  0  0  0  0  0  0
   -7.4766    1.7477   27.4593 C   0  0  0  0  0  0  0  0  0  0  0  0
   -8.7468    5.1251   26.6967 C   0  0  0  0  0  0  0  0  0  0  0  0
   -9.7234    4.8589   25.8202 C   0  0  0  0  0  0  0  0  0  0  0  0
   -9.9711    3.5858   25.4266 C   0  0  0  0  0  0  0  0  0  0  0  0
   -9.2266    2.4957   25.9600 C   0  0  0  0  0  0  0  0  0  0  0  0
   -6.6425    0.9223   26.7531 C   0  0  0  0  0  0  0  0  0  0  0  0
   -5.9067   -0.0723   27.5013 C   0  0  0  0  0  0  0  0  0  0  0  0
   -4.8126   -0.1406   27.6207 C   0  0  0  0  0  0  0  0  0  0  0  0
   -4.0698   -1.0643   28.5099 C   0  0  0  0  0  0  0  0  0  0  0  0
   -4.8335   -1.8989   29.3181 C   0  0  0  0  0  0  0  0  0  0  0  0
   -6.5253   -0.9764   28.6086 C   0  0  0  0  0  0  0  0  0  0  0  0
   -6.1064   -1.7687   29.3249 C   0  0  0  0  0  0  0  0  0  0  0  0
   -8.3927    6.7612   27.1318 Cl  0  0  0  0  0  0  0  0  0  0  0  0
  -11.0135    3.3596   24.4166 C   0  0  0  0  0  0  0  0  0  0  0  0
  -12.2463    3.1188   24.8283 C   0  0  0  0  0  0  0  0  0  0  0  0
  -12.6046    2.7502   25.9367 C   0  0  0  0  0  0  0  0  0  0  0  0
  -13.2302    2.9648   26.7430 C   0  0  0  0  0  0  0  0  0  0  0  0
  -13.4542    2.4087   28.1103 C   0  0  0  0  0  0  0  0  0  0  0  0
  -12.5957    1.3019   28.3441 C   0  0  0  0  0  0  0  0  0  0  0  0
  -11.7242    0.9106   27.3701 C   0  0  0  0  0  0  0  0  0  0  0  0
  -11.6684    1.6000   26.1983 C   0  0  0  0  0  0  0  0  0  0  0  0
  2  3  1  0
  3  8  2  3
  8  9  1  0
  4 15  1  0
  6 16  1  0
 16 17  1  0
 17 18  1  0
 18 19  2  0
 19 20  1  0
 20 21  2  0
 21 22  1  0
 22 23  2  0
 23 18  1  0
  1  2  2  0
  2  7  1  0
  7  6  2  0
  6  5  1  0
  5  4  2  0
  4  1  1  0
  9 10  2  0
 10 11  1  0
 11 12  2  0
 12 14  1  0
 14 13  2  0
 13  9  1  0
M  END
$$$$
