No_4447-complexes_sdf/6BKW-FPZ/2024-09-17-14-21-01/
     RDKit          3D

 40 46  0  0  0  0  0  0  0  0999 V2000
   -7.2496    3.8871   27.4508 C   0  0  0  0  0  0  0  0  0  0  0  0
   -8.5096    4.0291   27.2770 C   0  0  0  0  0  0  0  0  0  0  0  0
   -9.2677    5.1714   27.5773 C   0  0  0  0  0  0  0  0  0  0  0  0
   -9.2765    2.8248   26.8371 C   0  0  0  0  0  0  0  0  0  0  0  0
  -10.4623    3.0171   26.3237 C   0  0  2  0  0  0  0  0  0  0  0  0
  -10.8972    2.6250   25.3350 C   0  0  1  0  0  0  0  0  0  0  0  0
  -12.2134    2.9588   24.7026 C   0  0  0  0  0  0  0  0  0  0  0  0
   -8.5061    6.3501   27.9961 C   0  0  0  0  0  0  0  0  0  0  0  0
   -6.5105    5.0624   27.9716 C   0  0  0  0  0  0  0  0  0  0  0  0
   -7.1415    6.2086   28.1221 C   0  0  0  0  0  0  0  0  0  0  0  0
  -12.9509    3.8811   25.4265 C   0  0  0  0  0  0  0  0  0  0  0  0
  -12.5083    4.4346   26.6078 C   0  0  2  0  0  0  0  0  0  0  0  0
  -11.2908    4.0994   27.0897 C   0  0  2  0  0  0  0  0  0  0  0  0
  -10.6166    5.1682   27.3600 N   0  0  0  0  0  0  0  0  0  0  0  0
  -10.1432    1.6780   24.3671 C   0  0  0  0  0  0  0  0  0  0  0  0
   -9.9817    1.8929   23.0506 C   0  0  0  0  0  0  0  0  0  0  0  0
   -9.2248    0.9365   22.2798 C   0  0  0  0  0  0  0  0  0  0  0  0
   -8.4930   -0.0693   22.9122 C   0  0  0  0  0  0  0  0  0  0  0  0
   -8.5784   -0.1867   24.2967 C   0  0  0  0  0  0  0  0  0  0  0  0
   -9.3448    0.6679   25.0401 C   0  0  0  0  0  0  0  0  0  0  0  0
  -11.6391    3.3028   28.4435 C   0  0  2  0  0  0  0  0  0  0  0  0
  -12.8341    3.6139   29.1508 C   0  0  0  0  0  0  0  0  0  0  0  0
  -10.7537    2.3118   29.0096 C   0  0  0  0  0  0  0  0  0  0  0  0
  -13.1754    2.8084   30.3067 C   0  0  0  0  0  0  0  0  0  0  0  0
  -13.7133    4.6418   28.7640 C   0  0  0  0  0  0  0  0  0  0  0  0
  -13.6361    4.4088   27.7809 C   0  0  0  0  0  0  0  0  0  0  0  0
   -7.7079   -0.9461   22.0561 C   0  0  0  0  0  0  0  0  0  0  0  0
   -8.3085   -1.8651   21.1691 C   0  0  0  0  0  0  0  0  0  0  0  0
   -8.2890   -3.0302   21.5086 C   0  0  0  0  0  0  0  0  0  0  0  0
   -7.2122   -3.6445   22.0749 C   0  0  0  0  0  0  0  0  0  0  0  0
   -7.1571   -4.9732   22.4695 C   0  0  0  0  0  0  0  0  0  0  0  0
   -6.2855   -1.0809   22.3239 C   0  0  0  0  0  0  0  0  0  0  0  0
   -6.0760   -2.8937   22.5986 C   0  0  0  0  0  0  0  0  0  0  0  0
   -7.8502   -5.7841   21.9391 C   0  0  0  0  0  0  0  0  0  0  0  0
   -9.0127   -5.3257   21.1691 C   0  0  0  0  0  0  0  0  0  0  0  0
   -9.2241   -3.9850   20.9215 C   0  0  0  0  0  0  0  0  0  0  0  0
  -10.3548   -3.5475   20.1251 C   0  0  0  0  0  0  0  0  0  0  0  0
  -10.6611   -4.0255   19.0571 C   0  0  0  0  0  0  0  0  0  0  0  0
  -11.1723   -3.6803   18.2246 C   0  0  0  0  0  0  0  0  0  0  0  0
  -11.9107   -2.3559   18.3190 C   0  0  0  0  0  0  0  0  0  0  0  0
  2  4  1  0
  5  4  1  6
  6  7  1  0
 12 11  1  6
  5 13  1  0
 12 13  1  0
  3 14  1  0
 13 14  1  1
  6 15  1  6
 13 21  1  0
 21 22  1  0
 21 23  1  1
 22 24  1  0
 22 25  1  0
 12 26  1  0
 18 27  1  0
 36 37  1  0
 37 38  2  3
 38 39  1  0
 39 40  2  0
  5  6  1  0
  7 11  1  0
 26 25  1  0
 15 16  2  0
 16 17  1  0
 17 18  2  0
 18 19  1  0
 19 20  2  0
 20 15  1  0
 30 31  2  0
 31 34  1  0
 34 35  2  0
 35 36  1  0
 36 29  2  0
  1  2  2  0
  2  3  1  0
  3  8  2  0
  8 10  1  0
 10  9  2  0
  9  1  1  0
 27 28  2  0
 28 29  1  0
 29 30  1  0
 30 33  1  0
 33 32  2  0
 32 27  1  0
M  END
$$$$
