No_473-complexes_sdf/6BKW-FPZ/2024-09-17-14-21-01/
     RDKit          3D

 19 21  0  0  0  0  0  0  0  0999 V2000
   -7.2496    3.8871   27.4508 C   0  0  0  0  0  0  0  0  0  0  0  0
   -7.9379    4.9063   27.8518 C   0  0  0  0  0  0  0  0  0  0  0  0
   -9.3460    4.8223   27.8695 C   0  0  0  0  0  0  0  0  0  0  0  0
   -7.8628    2.6163   27.1065 C   0  0  0  0  0  0  0  0  0  0  0  0
   -9.2787    2.5744   27.1970 C   0  0  0  0  0  0  0  0  0  0  0  0
  -10.0108    3.6770   27.6340 C   0  0  0  0  0  0  0  0  0  0  0  0
  -11.4834    3.5674   27.7432 C   0  0  0  0  0  0  0  0  0  0  0  0
  -11.9395    2.6434   28.4995 C   0  0  0  0  0  0  0  0  0  0  0  0
  -13.3550    2.4593   28.7913 C   0  0  0  0  0  0  0  0  0  0  0  0
  -14.1867    3.4420   28.2483 C   0  0  0  0  0  0  0  0  0  0  0  0
  -13.6865    4.4698   27.4825 C   0  0  0  0  0  0  0  0  0  0  0  0
  -12.3085    4.6362   27.2712 C   0  0  0  0  0  0  0  0  0  0  0  0
   -7.1747    1.5564   26.7827 N   0  0  0  0  0  0  0  0  0  0  0  0
   -7.6637    0.5199   26.0665 C   0  0  0  0  0  0  0  0  0  0  0  0
   -6.8889   -0.6401   25.9913 C   0  0  0  0  0  0  0  0  0  0  0  0
   -5.9757    1.2366   27.4999 C   0  0  0  0  0  0  0  0  0  0  0  0
   -5.5153    0.0201   27.5073 C   0  0  0  0  0  0  0  0  0  0  0  0
   -5.8303   -0.9148   26.6850 C   0  0  0  0  0  0  0  0  0  0  0  0
   -7.0662    6.5428   28.2778 Br  0  0  0  0  0  0  0  0  0  0  0  0
  6  7  1  0
  4 13  1  0
 13 14  1  0
 13 16  1  0
 15 18  1  0
 17 18  1  0
  2 19  1  0
 14 15  1  0
 17 16  1  0
  1  2  2  0
  2  3  1  0
  3  6  2  0
  6  5  1  0
  5  4  2  0
  4  1  1  0
  7  8  2  0
  8  9  1  0
  9 10  2  0
 10 11  1  0
 11 12  2  0
 12  7  1  0
M  END
$$$$
