No_4798-complexes_sdf/6BKW-FPZ/2024-09-17-14-21-01/
     RDKit          3D

 29 31  0  0  0  0  0  0  0  0999 V2000
   -7.2496    3.8871   27.4508 C   0  0  0  0  0  0  0  0  0  0  0  0
   -8.5096    4.0291   27.2770 C   0  0  0  0  0  0  0  0  0  0  0  0
   -9.3502    2.8685   26.8763 C   0  0  0  0  0  0  0  0  0  0  0  0
   -6.6288    2.5513   27.4938 C   0  0  0  0  0  0  0  0  0  0  0  0
   -7.4365    1.4714   27.2032 C   0  0  0  0  0  0  0  0  0  0  0  0
   -8.7772    1.6579   26.9338 C   0  0  0  0  0  0  0  0  0  0  0  0
   -9.1078    5.3660   27.2249 C   0  0  0  0  0  0  0  0  0  0  0  0
  -10.3243    5.4180   27.6589 F   0  0  0  0  0  0  0  0  0  0  0  0
   -9.0374    5.9352   25.9723 F   0  0  0  0  0  0  0  0  0  0  0  0
   -8.3350    6.3034   27.9535 F   0  0  0  0  0  0  0  0  0  0  0  0
   -6.6126    0.2327   27.1906 C   0  0  0  0  0  0  0  0  0  0  0  0
   -5.5026    0.0848   27.7299 C   0  0  0  0  0  0  0  0  0  0  0  0
   -4.8338   -1.1490   27.8025 C   0  0  0  0  0  0  0  0  0  0  0  0
   -5.4020   -2.1984   27.0924 C   0  0  0  0  0  0  0  0  0  0  0  0
   -7.0359   -1.0207   26.6535 C   0  0  0  0  0  0  0  0  0  0  0  0
   -6.4992   -2.1284   26.5665 C   0  0  0  0  0  0  0  0  0  0  0  0
   -3.4395   -1.1863   28.4902 C   0  0  0  0  0  0  0  0  0  0  0  0
   -2.5162   -1.0381   27.7339 F   0  0  0  0  0  0  0  0  0  0  0  0
   -3.4071   -0.1322   29.4245 F   0  0  0  0  0  0  0  0  0  0  0  0
   -3.3907   -2.2656   29.2567 F   0  0  0  0  0  0  0  0  0  0  0  0
   -7.0500   -3.1766   26.0058 O   0  0  0  0  0  0  0  0  0  0  0  0
   -7.6367   -3.3498   25.0410 C   0  0  0  0  0  0  0  0  0  0  0  0
   -8.6533   -2.5601   24.6303 C   0  0  0  0  0  0  0  0  0  0  0  0
   -9.7606   -2.4711   25.1558 C   0  0  0  0  0  0  0  0  0  0  0  0
  -10.1628   -3.3477   26.2346 C   0  0  0  0  0  0  0  0  0  0  0  0
  -11.3978   -3.1028   26.9340 C   0  0  0  0  0  0  0  0  0  0  0  0
  -12.2193   -2.0359   26.4955 C   0  0  0  0  0  0  0  0  0  0  0  0
  -11.8966   -1.2043   25.5063 C   0  0  0  0  0  0  0  0  0  0  0  0
  -10.7014   -1.3285   24.8786 C   0  0  0  0  0  0  0  0  0  0  0  0
  2  7  1  0
  7  8  1  0
  7  9  1  0
  7 10  1  0
  5 11  1  0
 13 17  1  0
 17 18  1  0
 17 19  1  0
 17 20  1  0
 16 21  1  0
 21 22  1  0
 22 23  2  3
 23 24  1  0
 24 25  2  0
 25 26  1  0
 26 27  2  0
 27 28  1  0
 28 29  2  0
 29 24  1  0
  1  2  2  0
  2  3  1  0
  3  6  2  0
  6  5  1  0
  5  4  2  0
  4  1  1  0
 11 12  2  0
 12 13  1  0
 13 14  2  0
 14 16  1  0
 16 15  2  0
 15 11  1  0
M  END
$$$$
