No_4069-complexes_sdf/6BKW-FPZ/2024-09-17-14-21-01/
     RDKit          3D

 21 22  0  0  0  0  0  0  0  0999 V2000
   -7.7129    4.2099   27.0854 C   0  0  0  0  0  0  0  0  0  0  0  0
   -8.2112    3.0637   26.9225 C   0  0  0  0  0  0  0  0  0  0  0  0
   -8.5108    5.3904   26.9436 C   0  0  0  0  0  0  0  0  0  0  0  0
   -9.7256    5.1955   26.3518 C   0  0  0  0  0  0  0  0  0  0  0  0
   -9.4995    2.8258   26.4878 C   0  0  0  0  0  0  0  0  0  0  0  0
  -10.2542    3.9691   26.2055 C   0  0  0  0  0  0  0  0  0  0  0  0
   -7.8138    6.9227   27.2348 Cl  0  0  0  0  0  0  0  0  0  0  0  0
   -7.3640    1.8353   27.2492 C   0  0  0  0  0  0  0  0  0  0  0  0
   -6.1498    2.0141   27.7477 N   0  0  0  0  0  0  0  0  0  0  0  0
   -5.3821    0.8639   28.0195 C   0  0  0  0  0  0  0  0  0  0  0  0
   -4.0524    0.9757   28.6126 C   0  0  0  0  0  0  0  0  0  0  0  0
   -5.8831   -0.4049   27.7567 C   0  0  0  0  0  0  0  0  0  0  0  0
   -8.0603    0.7716   27.1489 O   0  0  0  0  0  0  0  0  0  0  0  0
   -5.0062   -1.4778   28.1745 C   0  0  0  0  0  0  0  0  0  0  0  0
   -3.2993   -0.0292   29.0283 C   0  0  0  0  0  0  0  0  0  0  0  0
   -3.7811   -1.2858   28.8254 C   0  0  0  0  0  0  0  0  0  0  0  0
   -2.9475   -2.4497   29.1899 C   0  0  0  0  0  0  0  0  0  0  0  0
   -3.1063   -3.4652   29.0950 N   0  0  0  0  0  0  0  0  0  0  0  0
   -1.4865   -1.9679   29.3142 C   0  0  0  0  0  0  0  0  0  0  0  0
   -4.3573   -4.0233   29.0271 C   0  0  0  0  0  0  0  0  0  0  0  0
   -5.4297   -3.6342   28.2376 C   0  0  0  0  0  0  0  0  0  0  0  0
  3  7  1  0
  2  8  1  0
  8  9  1  0
  8 13  2  0
 16 17  1  0
 17 18  2  3
 17 19  1  0
 18 20  1  0
 20 21  2  0
  9 10  1  0
 10 11  2  0
 11 15  1  0
 15 16  2  0
 16 14  1  0
 14 12  2  0
 12 10  1  0
  1  2  2  0
  2  5  1  0
  5  6  2  0
  6  4  1  0
  4  3  2  0
  3  1  1  0
M  END
$$$$
