No_4075-complexes_sdf/6BKW-FPZ/2024-09-17-14-21-01/
     RDKit          3D

 25 28  0  0  0  0  0  0  0  0999 V2000
   -7.7129    4.2099   27.0854 C   0  0  0  0  0  0  0  0  0  0  0  0
   -8.9133    4.4736   27.0998 C   0  0  0  0  0  0  0  0  0  0  0  0
   -9.7937    3.7367   26.2091 C   0  0  0  0  0  0  0  0  0  0  0  0
   -7.2495    2.8647   26.8496 C   0  0  0  0  0  0  0  0  0  0  0  0
   -8.1891    1.9790   26.3454 C   0  0  0  0  0  0  0  0  0  0  0  0
   -9.4252    2.4603   26.0121 C   0  0  0  0  0  0  0  0  0  0  0  0
   -9.4908    5.8311   27.3431 C   0  0  0  0  0  0  0  0  0  0  0  0
   -7.7377    0.6029   26.1001 C   0  0  0  0  0  0  0  0  0  0  0  0
   -8.0824   -0.2176   26.7186 C   0  0  0  0  0  0  0  0  0  0  0  0
   -7.6028   -1.6307   26.5881 C   0  0  0  0  0  0  0  0  0  0  0  0
   -6.6697   -1.8421   25.6346 C   0  0  0  0  0  0  0  0  0  0  0  0
   -6.2472   -0.8113   24.8347 C   0  0  0  0  0  0  0  0  0  0  0  0
   -6.7570    0.4750   25.0728 C   0  0  0  0  0  0  0  0  0  0  0  0
   -8.5701    6.9905   27.2958 C   0  0  0  0  0  0  0  0  0  0  0  0
   -7.2010    6.6311   27.1335 C   0  0  0  0  0  0  0  0  0  0  0  0
   -6.7381    5.3673   27.1974 C   0  0  0  0  0  0  0  0  0  0  0  0
  -11.1790    4.0696   25.8897 C   0  0  0  0  0  0  0  0  0  0  0  0
  -11.5881    3.9164   24.6066 C   0  0  0  0  0  0  0  0  0  0  0  0
  -11.8912    2.8754   24.1889 C   0  0  0  0  0  0  0  0  0  0  0  0
  -12.7408    2.0556   24.7084 C   0  0  0  0  0  0  0  0  0  0  0  0
  -13.0857    0.7367   24.2130 C   0  0  0  0  0  0  0  0  0  0  0  0
  -12.3888    0.3228   23.1130 C   0  0  0  0  0  0  0  0  0  0  0  0
  -11.4286    1.0935   22.4716 C   0  0  0  0  0  0  0  0  0  0  0  0
  -11.1267    2.3365   22.9581 C   0  0  0  0  0  0  0  0  0  0  0  0
  -10.1070    3.1684   22.3101 C   0  0  0  0  0  0  0  0  0  0  0  0
  5  8  1  0
  3 17  1  0
 17 18  1  0
 18 19  1  0
 24 25  1  0
  2  3  1  0
  3  6  2  0
  6  5  1  0
  5  4  2  0
  4  1  1  0
  8  9  2  0
  9 10  1  0
 10 11  2  0
 11 12  1  0
 12 13  2  0
 13  8  1  0
 19 20  2  0
 20 21  1  0
 21 22  2  0
 22 23  1  0
 23 24  2  0
 24 19  1  0
  1  2  2  0
  2  7  1  0
  7 14  2  0
 14 15  1  0
 15 16  2  0
 16  1  1  0
M  END
$$$$
