No_4240-complexes_sdf/6BKW-FPZ/2024-09-17-14-21-01/
     RDKit          3D

 14 15  0  0  0  0  0  0  0  0999 V2000
   -7.9040    3.9820   27.1177 C   0  0  0  0  0  0  0  0  0  0  0  0
   -9.0711    4.3164   27.0630 C   0  0  0  0  0  0  0  0  0  0  0  0
   -9.5294    5.4517   27.7215 C   0  0  0  0  0  0  0  0  0  0  0  0
   -6.9328    4.7309   27.8881 C   0  0  0  0  0  0  0  0  0  0  0  0
   -7.3377    5.8421   28.5537 C   0  0  0  0  0  0  0  0  0  0  0  0
   -8.6411    6.2609   28.3972 C   0  0  0  0  0  0  0  0  0  0  0  0
  -10.0467    3.4917   26.2630 C   0  0  0  0  0  0  0  0  0  0  0  0
  -10.6901    2.6509   26.7331 C   0  0  0  0  0  0  0  0  0  0  0  0
  -11.6019    1.7615   26.0396 C   0  0  0  0  0  0  0  0  0  0  0  0
   -9.4203    3.2074   24.9212 C   0  0  0  0  0  0  0  0  0  0  0  0
  -10.2393    2.4715   24.0321 C   0  0  0  0  0  0  0  0  0  0  0  0
  -11.2248    1.6328   24.6384 C   0  0  0  0  0  0  0  0  0  0  0  0
  -12.0244    0.7844   23.7573 C   0  0  0  0  0  0  0  0  0  0  0  0
  -12.8391    0.1592   23.6173 N   0  0  0  0  0  0  0  0  0  0  0  0
  2  7  1  0
 12 13  1  0
 13 14  3  0
  1  2  2  0
  2  3  1  0
  3  6  2  0
  6  5  1  0
  5  4  2  0
  4  1  1  0
  7  8  2  0
  8  9  1  0
  9 12  2  0
 12 11  1  0
 11 10  2  0
 10  7  1  0
M  END
$$$$
