No_4799-complexes_sdf/6BKW-FPZ/2024-09-17-14-21-01/
     RDKit          3D

 24 27  0  0  0  0  0  0  0  0999 V2000
   -7.7129    4.2099   27.0854 C   0  0  0  0  0  0  0  0  0  0  0  0
   -7.7814    5.1722   27.8972 C   0  0  0  0  0  0  0  0  0  0  0  0
   -8.8998    3.8713   26.3707 C   0  0  0  0  0  0  0  0  0  0  0  0
   -9.9938    4.6774   26.5446 C   0  0  0  0  0  0  0  0  0  0  0  0
   -8.7789    6.1536   27.9256 C   0  0  0  0  0  0  0  0  0  0  0  0
   -9.9428    5.8398   27.2296 C   0  0  0  0  0  0  0  0  0  0  0  0
   -8.7183    2.6009   25.5951 C   0  0  0  0  0  0  0  0  0  0  0  0
   -9.5264    2.5015   24.5160 C   0  0  0  0  0  0  0  0  0  0  0  0
   -9.5373    1.3446   23.7069 C   0  0  0  0  0  0  0  0  0  0  0  0
   -8.6236    0.3048   24.0759 C   0  0  0  0  0  0  0  0  0  0  0  0
   -7.8883    0.4008   25.2337 C   0  0  0  0  0  0  0  0  0  0  0  0
   -7.9375    1.5694   26.0307 C   0  0  0  0  0  0  0  0  0  0  0  0
  -10.2489    1.2678   22.4648 C   0  0  0  0  0  0  0  0  0  0  0  0
  -11.5801    1.0871   22.5985 C   0  0  0  0  0  0  0  0  0  0  0  0
  -12.3658    1.1208   21.4784 C   0  0  0  0  0  0  0  0  0  0  0  0
  -11.7512    1.2318   20.1945 C   0  0  0  0  0  0  0  0  0  0  0  0
  -10.3951    1.3979   20.0927 C   0  0  0  0  0  0  0  0  0  0  0  0
   -9.5854    1.4827   21.2175 C   0  0  0  0  0  0  0  0  0  0  0  0
   -8.5441   -0.8628   23.2627 C   0  0  0  0  0  0  0  0  0  0  0  0
   -7.3522   -1.3648   23.0738 C   0  0  0  0  0  0  0  0  0  0  0  0
   -7.1768   -2.5453   22.2735 C   0  0  0  0  0  0  0  0  0  0  0  0
   -8.2672   -2.9609   21.5414 C   0  0  0  0  0  0  0  0  0  0  0  0
   -9.3105   -2.2639   21.6412 C   0  0  0  0  0  0  0  0  0  0  0  0
   -9.5597   -1.2255   22.4778 C   0  0  0  0  0  0  0  0  0  0  0  0
  3  7  1  0
  9 13  1  0
 10 19  1  0
 19 20  2  0
 20 21  1  0
 21 22  2  0
 22 23  1  0
 23 24  2  0
 24 19  1  0
 13 14  2  0
 14 15  1  0
 15 16  2  0
 16 17  1  0
 17 18  2  0
 18 13  1  0
  1  2  2  0
  2  5  1  0
  5  6  2  0
  6  4  1  0
  4  3  2  0
  3  1  1  0
  7  8  2  0
  8  9  1  0
  9 10  2  0
 10 11  1  0
 11 12  2  0
 12  7  1  0
M  END
$$$$
