No_4254-complexes_sdf/6BKW-FPZ/2024-09-17-14-21-01/
     RDKit          3D

 20 22  0  0  0  0  0  0  0  0999 V2000
   -7.9040    3.9820   27.1177 C   0  0  0  0  0  0  0  0  0  0  0  0
   -8.2057    2.8231   26.8733 C   0  0  0  0  0  0  0  0  0  0  0  0
   -8.7695    5.0740   26.7916 C   0  0  0  0  0  0  0  0  0  0  0  0
   -8.4785    6.4289   27.2922 C   0  0  0  0  0  0  0  0  0  0  0  0
   -9.2529    2.3917   26.0668 C   0  0  0  0  0  0  0  0  0  0  0  0
  -10.1277    3.4333   25.7287 C   0  0  0  0  0  0  0  0  0  0  0  0
   -9.9101    4.7626   26.0802 C   0  0  0  0  0  0  0  0  0  0  0  0
   -7.4009    1.5372   27.2089 C   0  0  0  0  0  0  0  0  0  0  0  0
   -7.8191    0.3646   27.2007 N   0  0  0  0  0  0  0  0  0  0  0  0
   -6.0231    1.8265   27.5296 N   0  0  0  0  0  0  0  0  0  0  0  0
   -8.9688   -0.1417   26.9543 C   0  0  0  0  0  0  0  0  0  0  0  0
   -9.9216    0.7635   26.3462 C   0  0  0  0  0  0  0  0  0  0  0  0
   -7.8370    7.3924   26.8225 N   0  0  0  0  0  0  0  0  0  0  0  0
   -5.1926    0.8303   27.9251 C   0  0  0  0  0  0  0  0  0  0  0  0
   -4.7926   -0.0408   27.2946 C   0  0  0  0  0  0  0  0  0  0  0  0
   -3.7696   -0.9633   27.7217 C   0  0  0  0  0  0  0  0  0  0  0  0
   -3.2058   -0.8187   29.0179 C   0  0  0  0  0  0  0  0  0  0  0  0
   -3.7334    0.2761   29.8244 C   0  0  0  0  0  0  0  0  0  0  0  0
   -4.5632    1.1123   29.3269 C   0  0  0  0  0  0  0  0  0  0  0  0
   -9.4773   -1.7016   27.0257 Cl  0  0  0  0  0  0  0  0  0  0  0  0
  3  4  1  0
  8 10  1  0
  4 13  1  0
 11 20  1  0
 10 14  1  0
  5 12  1  0
 12 11  2  0
 11  9  1  0
  9  8  2  0
  8  2  1  0
  1  2  2  0
  2  5  1  0
  5  6  2  0
  6  7  1  0
  7  3  2  0
  3  1  1  0
 14 15  2  0
 15 16  1  0
 16 17  2  0
 17 18  1  0
 18 19  2  0
 19 14  1  0
M  END
$$$$
