No_420-complexes_sdf/6BKW-FPZ/2024-09-17-14-21-01/
     RDKit          3D

 11 11  0  0  0  0  0  0  0  0999 V2000
   -7.7129    4.2099   27.0854 C   0  0  0  0  0  0  0  0  0  0  0  0
   -7.7814    5.1722   27.8972 C   0  0  0  0  0  0  0  0  0  0  0  0
   -8.8776    3.8408   26.3416 C   0  0  0  0  0  0  0  0  0  0  0  0
   -9.9844    4.6492   26.4743 C   0  0  0  0  0  0  0  0  0  0  0  0
   -8.7830    6.1594   27.8870 C   0  0  0  0  0  0  0  0  0  0  0  0
  -11.0777    4.2772   25.6418 C   0  0  0  0  0  0  0  0  0  0  0  0
   -9.9463    5.8095   27.1423 C   0  0  0  0  0  0  0  0  0  0  0  0
  -12.2520    3.8316   26.0040 C   0  0  0  0  0  0  0  0  0  0  0  0
  -12.4991    3.6984   27.3872 C   0  0  0  0  0  0  0  0  0  0  0  0
  -11.6833    3.1586   28.1722 C   0  0  0  0  0  0  0  0  0  0  0  0
  -12.0691    2.8319   29.5950 C   0  0  0  0  0  0  0  0  0  0  0  0
  4  6  1  0
  6  8  1  0
  8  9  1  0
  9 10  2  3
 10 11  1  0
  1  2  2  0
  2  5  1  0
  5  7  2  0
  7  4  1  0
  4  3  2  0
  3  1  1  0
M  END
$$$$
