No_4847-complexes_sdf/6BKW-FPZ/2024-09-17-14-21-01/
     RDKit          3D

 14 15  0  0  0  0  0  0  0  0999 V2000
   -7.9040    3.9820   27.1177 C   0  0  0  0  0  0  0  0  0  0  0  0
   -7.8663    4.8694   27.9238 C   0  0  0  0  0  0  0  0  0  0  0  0
   -9.0501    3.8017   26.2617 C   0  0  0  0  0  0  0  0  0  0  0  0
  -10.0189    4.7608   26.3707 C   0  0  0  0  0  0  0  0  0  0  0  0
   -8.6973    5.9722   27.8968 C   0  0  0  0  0  0  0  0  0  0  0  0
   -9.8216    5.8946   27.1241 C   0  0  0  0  0  0  0  0  0  0  0  0
   -9.1445    2.6271   25.4265 C   0  0  0  0  0  0  0  0  0  0  0  0
   -9.9311    2.7327   24.3436 N   0  0  0  0  0  0  0  0  0  0  0  0
  -10.4469    3.8110   23.8750 C   0  0  0  0  0  0  0  0  0  0  0  0
  -10.0129    1.5685   23.4714 C   0  0  0  0  0  0  0  0  0  0  0  0
  -11.1008    3.8595   22.6165 C   0  0  0  0  0  0  0  0  0  0  0  0
  -10.6506    1.5871   22.2621 C   0  0  0  0  0  0  0  0  0  0  0  0
  -11.1632    2.7908   21.8279 C   0  0  0  0  0  0  0  0  0  0  0  0
   -8.6345    1.5535   25.8162 O   0  0  0  0  0  0  0  0  0  0  0  0
  3  7  1  0
  7  8  1  0
  8  9  1  0
  8 10  1  0
 11 13  1  0
 12 13  1  0
  7 14  2  0
  9 11  1  0
 12 10  1  0
  1  2  2  0
  2  5  1  0
  5  6  2  0
  6  4  1  0
  4  3  2  0
  3  1  1  0
M  END
$$$$
