No_4300-complexes_sdf/6BKW-FPZ/2024-09-17-14-21-01/
     RDKit          3D

 26 28  0  0  0  0  0  0  0  0999 V2000
   -7.9040    3.9820   27.1177 C   0  0  0  0  0  0  0  0  0  0  0  0
   -9.0711    4.3164   27.0630 C   0  0  0  0  0  0  0  0  0  0  0  0
   -9.5182    5.5541   27.5777 C   0  0  0  0  0  0  0  0  0  0  0  0
   -6.9424    4.7983   27.8424 C   0  0  0  0  0  0  0  0  0  0  0  0
   -7.3526    5.9739   28.3909 C   0  0  0  0  0  0  0  0  0  0  0  0
   -8.6479    6.3742   28.2169 C   0  0  0  0  0  0  0  0  0  0  0  0
  -10.0621    3.4422   26.3345 C   0  0  0  0  0  0  0  0  0  0  0  0
   -9.6335    2.6185   25.4370 C   0  0  0  0  0  0  0  0  0  0  0  0
  -10.4839    1.8300   24.6020 C   0  0  0  0  0  0  0  0  0  0  0  0
  -11.8333    2.0895   24.6570 C   0  0  0  0  0  0  0  0  0  0  0  0
  -11.4620    3.7184   26.2542 C   0  0  0  0  0  0  0  0  0  0  0  0
  -12.3183    3.0606   25.5409 C   0  0  0  0  0  0  0  0  0  0  0  0
   -9.9279    0.8079   23.6934 C   0  0  0  0  0  0  0  0  0  0  0  0
  -10.4585   -0.2297   23.6654 C   0  0  0  0  0  0  0  0  0  0  0  0
   -9.9449   -1.2797   22.6765 C   0  0  0  0  0  0  0  0  0  0  0  0
   -8.8294   -0.9696   21.9147 C   0  0  0  0  0  0  0  0  0  0  0  0
   -8.2231    0.2676   22.0277 C   0  0  0  0  0  0  0  0  0  0  0  0
   -8.7335    1.2026   22.9306 C   0  0  0  0  0  0  0  0  0  0  0  0
  -13.7479    3.3240   25.6041 C   0  0  0  0  0  0  0  0  0  0  0  0
  -14.2270    3.9472   26.6725 C   0  0  0  0  0  0  0  0  0  0  0  0
  -14.5991    3.2650   27.8044 C   0  0  0  0  0  0  0  0  0  0  0  0
  -14.5515    2.2945   28.1342 C   0  0  0  0  0  0  0  0  0  0  0  0
  -14.8582    1.6986   29.4962 C   0  0  0  0  0  0  0  0  0  0  0  0
  -14.5452    0.4608   29.9548 C   0  0  0  0  0  0  0  0  0  0  0  0
  -13.9045   -0.4066   29.0324 C   0  0  0  0  0  0  0  0  0  0  0  0
  -13.5413    0.0103   27.7862 C   0  0  0  0  0  0  0  0  0  0  0  0
  2  7  1  0
  9 13  1  0
 12 19  1  0
 19 20  1  0
 20 21  1  0
 21 22  2  3
 22 23  1  0
 23 24  2  3
 24 25  1  0
 25 26  2  0
  7  8  2  0
  8  9  1  0
  9 10  2  0
 10 12  1  0
 12 11  2  0
 11  7  1  0
 13 14  2  0
 14 15  1  0
 15 16  2  0
 16 17  1  0
 17 18  2  0
 18 13  1  0
  1  2  2  0
  2  3  1  0
  3  6  2  0
  6  5  1  0
  5  4  2  0
  4  1  1  0
M  END
$$$$
