No_4890-complexes_sdf/6BKW-FPZ/2024-09-17-14-21-01/
     RDKit          3D

 30 33  0  0  0  0  0  0  0  0999 V2000
   -7.2496    3.8871   27.4508 C   0  0  0  0  0  0  0  0  0  0  0  0
   -7.6161    2.7143   27.1523 C   0  0  0  0  0  0  0  0  0  0  0  0
   -8.8302    2.4659   26.5056 C   0  0  0  0  0  0  0  0  0  0  0  0
   -8.1584    5.0090   27.3234 C   0  0  0  0  0  0  0  0  0  0  0  0
   -9.3788    4.7965   26.7695 C   0  0  0  0  0  0  0  0  0  0  0  0
   -9.7028    3.5649   26.3276 C   0  0  0  0  0  0  0  0  0  0  0  0
   -6.4663    1.2443   27.4310 Br  0  0  0  0  0  0  0  0  0  0  0  0
   -7.7267    6.2125   27.7232 F   0  0  0  0  0  0  0  0  0  0  0  0
  -11.0163    3.3692   25.6731 C   0  0  0  0  0  0  0  0  0  0  0  0
  -12.1284    3.0125   26.3596 C   0  0  0  0  0  0  0  0  0  0  0  0
  -11.9740    2.9276   27.8259 C   0  0  0  0  0  0  0  0  0  0  0  0
  -11.0590    3.1303   28.5205 C   0  0  0  0  0  0  0  0  0  0  0  0
  -11.2717    3.0430   30.1168 C   0  0  0  0  0  0  0  0  0  0  0  0
  -12.6692    2.8934   30.4278 C   0  0  0  0  0  0  0  0  0  0  0  0
  -13.2750    2.8113   28.7045 C   0  0  2  0  0  0  0  0  0  0  0  0
  -11.0914    3.5453   24.2488 C   0  0  0  0  0  0  0  0  0  0  0  0
  -10.2983    4.3811   23.6668 C   0  0  0  0  0  0  0  0  0  0  0  0
  -10.3695    4.5770   22.2013 C   0  0  0  0  0  0  0  0  0  0  0  0
  -11.1930    3.7591   21.4816 C   0  0  0  0  0  0  0  0  0  0  0  0
  -11.8851    2.8464   23.3608 C   0  0  0  0  0  0  0  0  0  0  0  0
  -11.9914    2.9190   22.0793 C   0  0  0  0  0  0  0  0  0  0  0  0
  -14.5793    2.6272   28.4577 C   0  0  0  0  0  0  0  0  0  0  0  0
  -15.2497    2.6646   27.6720 N   0  0  0  0  0  0  0  0  0  0  0  0
  -16.4783    2.2598   27.5511 C   0  0  0  0  0  0  0  0  0  0  0  0
  -15.0958    1.7709   29.4604 O   0  0  0  0  0  0  0  0  0  0  0  0
  -17.4405    3.0921   27.4067 C   0  0  0  0  0  0  0  0  0  0  0  0
  -18.7481    2.7297   27.1005 C   0  0  0  0  0  0  0  0  0  0  0  0
  -18.9994    1.3564   26.9452 C   0  0  0  0  0  0  0  0  0  0  0  0
  -18.0117    0.4470   27.0236 C   0  0  0  0  0  0  0  0  0  0  0  0
  -16.6707    0.8686   27.2554 C   0  0  0  0  0  0  0  0  0  0  0  0
  2  7  1  0
  4  8  1  0
  6  9  1  0
  9 10  2  3
 10 11  1  0
 11 12  2  0
 12 13  1  0
 13 14  2  0
 11 15  1  0
 14 15  1  0
  9 16  1  0
 15 22  1  1
 22 23  1  0
 23 24  1  0
 22 25  2  0
  1  2  2  0
  2  3  1  0
  3  6  2  0
  6  5  1  0
  5  4  2  0
  4  1  1  0
 24 26  2  0
 26 27  1  0
 27 28  2  0
 28 29  1  0
 29 30  2  0
 30 24  1  0
 16 17  2  0
 17 18  1  0
 18 19  2  0
 19 21  1  0
 21 20  2  0
 20 16  1  0
M  END
$$$$
