No_4766-complexes_sdf/6BKW-FPZ/2024-09-17-14-21-01/
     RDKit          3D

 38 42  0  0  0  0  0  0  0  0999 V2000
   -7.9040    3.9820   27.1177 C   0  0  0  0  0  0  0  0  0  0  0  0
   -8.2057    2.8231   26.8733 C   0  0  0  0  0  0  0  0  0  0  0  0
   -8.7695    5.0740   26.7916 C   0  0  0  0  0  0  0  0  0  0  0  0
   -8.4337    6.4678   27.0913 C   0  0  0  0  0  0  0  0  0  0  0  0
   -9.3742    2.4311   26.2346 C   0  0  0  0  0  0  0  0  0  0  0  0
  -10.2395    3.4267   25.8887 C   0  0  0  0  0  0  0  0  0  0  0  0
   -9.9567    4.7548   26.1374 C   0  0  0  0  0  0  0  0  0  0  0  0
   -8.6883    7.3863   26.4388 O   0  0  0  0  0  0  0  0  0  0  0  0
   -7.3396    6.5460   27.9158 O   0  0  0  0  0  0  0  0  0  0  0  0
   -7.4562    1.5330   27.2351 C   0  0  0  0  0  0  0  0  0  0  0  0
   -7.9210    0.3304   27.0048 C   0  0  0  0  0  0  0  0  0  0  0  0
   -9.1105    0.1079   26.4312 C   0  0  0  0  0  0  0  0  0  0  0  0
   -9.8762    1.1390   26.0068 C   0  0  0  0  0  0  0  0  0  0  0  0
   -5.9224    1.8636   28.0460 Cl  0  0  0  0  0  0  0  0  0  0  0  0
  -11.4751    3.2663   25.1055 C   0  0  0  0  0  0  0  0  0  0  0  0
  -12.5302    2.9394   25.6358 C   0  0  0  0  0  0  0  0  0  0  0  0
  -11.3769    3.3614   23.6650 C   0  0  0  0  0  0  0  0  0  0  0  0
  -12.4432    3.2139   22.8693 C   0  0  0  0  0  0  0  0  0  0  0  0
  -12.7300    2.7735   27.1223 C   0  0  0  0  0  0  0  0  0  0  0  0
  -13.6620    2.9217   23.5099 C   0  0  0  0  0  0  0  0  0  0  0  0
  -13.7400    2.8274   24.8420 C   0  0  0  0  0  0  0  0  0  0  0  0
  -13.2621    3.3834   27.9327 C   0  0  0  0  0  0  0  0  0  0  0  0
  -13.3154    3.1675   29.3623 C   0  0  0  0  0  0  0  0  0  0  0  0
  -12.6329    2.0088   29.8076 C   0  0  0  0  0  0  0  0  0  0  0  0
  -11.9758    1.2232   28.8890 C   0  0  0  0  0  0  0  0  0  0  0  0
  -11.9820    1.5280   27.5322 C   0  0  0  0  0  0  0  0  0  0  0  0
  -14.0211    4.7456   27.5990 C   0  0  0  0  0  0  0  0  0  0  0  0
  -15.4297    4.7670   27.5628 C   0  0  2  0  0  0  0  0  0  0  0  0
  -16.0037    5.8143   27.0034 C   0  0  0  0  0  0  0  0  0  0  0  0
  -15.4931    6.4447   25.9133 C   0  0  0  0  0  0  0  0  0  0  0  0
  -16.1212    7.5640   25.2860 C   0  0  0  0  0  0  0  0  0  0  0  0
  -17.1479    8.2393   25.9550 C   0  0  0  0  0  0  0  0  0  0  0  0
  -17.6426    7.6909   27.0946 C   0  0  0  0  0  0  0  0  0  0  0  0
  -17.0808    6.5961   27.6294 C   0  0  0  0  0  0  0  0  0  0  0  0
  -16.0021    4.5615   28.9598 C   0  0  0  0  0  0  0  0  0  0  0  0
  -16.7518    3.4237   29.1299 C   0  0  0  0  0  0  0  0  0  0  0  0
  -17.2732    3.1301   30.0371 C   0  0  0  0  0  0  0  0  0  0  0  0
  -18.0238    1.8329   30.2179 C   0  0  0  0  0  0  0  0  0  0  0  0
  3  4  1  0
  4  8  2  0
  4  9  1  0
 10 14  1  0
  6 15  1  0
 16 19  1  0
 22 27  1  0
 28 27  1  1
 28 29  1  0
 28 35  1  0
 35 36  2  3
 36 37  1  0
 37 38  2  0
  1  2  2  0
  5  6  2  0
  6  7  1  0
  7  3  2  0
  3  1  1  0
  2  5  1  0
  5 13  1  0
 13 12  2  0
 12 11  1  0
 11 10  2  0
 10  2  1  0
 19 22  1  0
 22 23  2  0
 23 24  1  0
 24 25  2  0
 25 26  1  0
 26 19  2  0
 29 30  2  0
 30 31  1  0
 31 32  2  0
 32 33  1  0
 33 34  2  0
 34 29  1  0
 15 16  2  0
 16 21  1  0
 21 20  2  0
 20 18  1  0
 18 17  2  0
 17 15  1  0
M  END
$$$$
