No_4620-complexes_sdf/6BKW-FPZ/2024-09-17-14-21-01/
     RDKit          3D

 23 26  0  0  0  0  0  0  0  0999 V2000
   -7.7129    4.2099   27.0854 C   0  0  0  0  0  0  0  0  0  0  0  0
   -7.7814    5.1722   27.8972 C   0  0  0  0  0  0  0  0  0  0  0  0
   -8.8776    3.8408   26.3416 C   0  0  0  0  0  0  0  0  0  0  0  0
   -8.9136    2.6330   25.5655 C   0  0  0  0  0  0  0  0  0  0  0  0
   -8.8361    6.1389   27.9032 C   0  0  0  0  0  0  0  0  0  0  0  0
   -9.9718    4.7048   26.3433 C   0  0  0  0  0  0  0  0  0  0  0  0
   -9.9205    5.8499   27.1013 C   0  0  0  0  0  0  0  0  0  0  0  0
   -8.3041    1.4977   26.1841 C   0  0  0  0  0  0  0  0  0  0  0  0
   -8.1707    0.3098   25.5307 C   0  0  0  0  0  0  0  0  0  0  0  0
   -8.7629    0.2694   24.2434 C   0  0  0  0  0  0  0  0  0  0  0  0
   -9.3731    1.3549   23.6304 C   0  0  0  0  0  0  0  0  0  0  0  0
   -9.4020    2.5435   24.2989 C   0  0  0  0  0  0  0  0  0  0  0  0
   -8.6799   -1.0105   23.4527 C   0  0  0  0  0  0  0  0  0  0  0  0
   -9.2158   -1.1359   22.2820 C   0  0  0  0  0  0  0  0  0  0  0  0
   -9.8405    0.0792   21.6491 C   0  0  0  0  0  0  0  0  0  0  0  0
   -9.9176    1.2852   22.3364 C   0  0  0  0  0  0  0  0  0  0  0  0
  -10.5281    2.3856   21.6222 C   0  0  0  0  0  0  0  0  0  0  0  0
  -11.7986    2.7512   21.9621 C   0  0  0  0  0  0  0  0  0  0  0  0
   -9.7944    3.1126   20.6498 C   0  0  0  0  0  0  0  0  0  0  0  0
  -10.3011    4.2730   19.9846 C   0  0  0  0  0  0  0  0  0  0  0  0
  -12.3701    3.9208   21.3452 C   0  0  0  0  0  0  0  0  0  0  0  0
  -11.6233    4.6515   20.3897 C   0  0  0  0  0  0  0  0  0  0  0  0
  -10.3368   -0.0008   20.4735 F   0  0  0  0  0  0  0  0  0  0  0  0
  3  4  1  0
 16 17  1  0
 15 23  1  0
  4  8  2  0
  8  9  1  0
  9 10  2  0
 11 12  2  0
 12  4  1  0
 17 18  2  0
 18 21  1  0
 21 22  2  0
 22 20  1  0
 20 19  2  0
 19 17  1  0
  1  2  2  0
  2  5  1  0
  5  7  2  0
  7  6  1  0
  6  3  2  0
  3  1  1  0
 10 11  1  0
 11 16  1  0
 16 15  2  0
 15 14  1  0
 14 13  2  0
 13 10  1  0
M  END
$$$$
