No_4178-complexes_sdf/6BKW-FPZ/2024-09-17-14-21-01/
     RDKit          3D

 15 16  0  0  0  0  0  0  0  0999 V2000
   -7.2496    3.8871   27.4508 C   0  0  0  0  0  0  0  0  0  0  0  0
   -7.6161    2.7143   27.1523 C   0  0  0  0  0  0  0  0  0  0  0  0
   -8.8302    2.4659   26.5056 C   0  0  0  0  0  0  0  0  0  0  0  0
   -8.1584    5.0090   27.3234 C   0  0  0  0  0  0  0  0  0  0  0  0
   -9.3788    4.7965   26.7695 C   0  0  0  0  0  0  0  0  0  0  0  0
  -10.2565    5.9223   26.5388 C   0  0  0  0  0  0  0  0  0  0  0  0
   -9.7413    3.5289   26.3208 C   0  0  0  0  0  0  0  0  0  0  0  0
   -6.7167    1.5314   27.3525 C   0  0  0  0  0  0  0  0  0  0  0  0
   -7.0259    0.1984   27.2291 C   0  0  0  0  0  0  0  0  0  0  0  0
   -6.1527   -0.8018   27.5283 C   0  0  0  0  0  0  0  0  0  0  0  0
   -4.8898   -0.4425   28.0682 C   0  0  0  0  0  0  0  0  0  0  0  0
   -4.5477    0.8881   28.2605 C   0  0  0  0  0  0  0  0  0  0  0  0
   -5.3994    1.8526   27.9701 C   0  0  0  0  0  0  0  0  0  0  0  0
   -7.7191    6.2399   27.7845 N   0  0  0  0  0  0  0  0  0  0  0  0
   -4.0560   -1.4600   28.4357 F   0  0  0  0  0  0  0  0  0  0  0  0
  5  6  1  0
  2  8  1  0
  4 14  1  0
 11 15  1  0
  1  2  2  0
  2  3  1  0
  3  7  2  0
  7  5  1  0
  5  4  2  0
  4  1  1  0
  8  9  2  0
  9 10  1  0
 10 11  2  0
 11 12  1  0
 12 13  2  0
 13  8  1  0
M  END
$$$$
