No_4244-complexes_sdf/6BKW-FPZ/2024-09-17-14-21-01/
     RDKit          3D

 17 18  0  0  0  0  0  0  0  0999 V2000
   -7.7129    4.2099   27.0854 C   0  0  0  0  0  0  0  0  0  0  0  0
   -8.9133    4.4736   27.0998 C   0  0  0  0  0  0  0  0  0  0  0  0
   -9.7135    3.9633   26.0300 C   0  0  0  0  0  0  0  0  0  0  0  0
   -6.8655    4.8824   28.1822 C   0  0  0  0  0  0  0  0  0  0  0  0
   -9.2221    2.8459   25.3619 C   0  0  0  0  0  0  0  0  0  0  0  0
   -8.0164    2.2957   25.7889 C   0  0  0  0  0  0  0  0  0  0  0  0
   -7.3052    2.9474   26.8072 C   0  0  0  0  0  0  0  0  0  0  0  0
  -10.0330    2.1843   24.3790 C   0  0  0  0  0  0  0  0  0  0  0  0
  -10.1884    2.8674   23.1331 C   0  0  0  0  0  0  0  0  0  0  0  0
  -10.8584    2.2755   22.0191 C   0  0  0  0  0  0  0  0  0  0  0  0
  -11.2216    0.9180   22.1160 C   0  0  0  0  0  0  0  0  0  0  0  0
  -10.3078    0.8605   24.3042 C   0  0  0  0  0  0  0  0  0  0  0  0
  -10.9031    0.2349   23.2563 C   0  0  0  0  0  0  0  0  0  0  0  0
   -9.2370    5.9261   27.5109 C   0  0  0  0  0  0  0  0  0  0  0  0
  -11.1503    3.0595   20.8161 C   0  0  1  0  0  0  0  0  0  0  0  0
  -10.1082    4.2657   20.4831 Cl  0  0  0  0  0  0  0  0  0  0  0  0
  -12.0001    2.7332   19.9650 F   0  0  0  0  0  0  0  0  0  0  0  0
  1  4  1  0
  5  8  1  0
  2 14  1  0
 10 15  1  0
 15 16  1  0
 15 17  1  6
  8  9  2  0
  9 10  1  0
 10 11  2  0
 11 13  1  0
 13 12  2  0
 12  8  1  0
  1  2  2  0
  2  3  1  0
  3  5  2  0
  5  6  1  0
  6  7  2  0
  7  1  1  0
M  END
$$$$
