No_4085-complexes_sdf/6BKW-FPZ/2024-09-17-14-21-01/
     RDKit          3D

 40 42  0  0  0  0  0  0  0  0999 V2000
   -7.2496    3.8871   27.4508 C   0  0  0  0  0  0  0  0  0  0  0  0
   -8.5096    4.0291   27.2770 C   0  0  0  0  0  0  0  0  0  0  0  0
   -9.3451    2.8786   26.9046 C   0  0  0  0  0  0  0  0  0  0  0  0
   -8.7138    1.7135   26.7541 C   0  0  0  0  0  0  0  0  0  0  0  0
   -6.5992    2.6226   27.4994 C   0  0  0  0  0  0  0  0  0  0  0  0
   -7.3741    1.5404   27.1241 C   0  0  0  0  0  0  0  0  0  0  0  0
   -9.1432    5.3791   27.3104 C   0  0  0  0  0  0  0  0  0  0  0  0
  -10.3548    5.4650   27.7287 F   0  0  0  0  0  0  0  0  0  0  0  0
   -8.4104    6.2708   28.1135 F   0  0  0  0  0  0  0  0  0  0  0  0
   -9.0425    5.9358   26.0464 F   0  0  0  0  0  0  0  0  0  0  0  0
   -6.6921    0.2617   27.0380 C   0  0  0  0  0  0  0  0  0  0  0  0
   -6.5473   -0.2614   26.0128 O   0  0  0  0  0  0  0  0  0  0  0  0
   -6.1723   -0.2171   28.1782 O   0  0  0  0  0  0  0  0  0  0  0  0
   -5.0885   -0.9420   28.2102 C   0  0  1  0  0  0  0  0  0  0  0  0
   -4.4425   -0.9043   29.4948 C   0  0  0  0  0  0  0  0  0  0  0  0
   -5.0398   -0.2952   30.5494 C   0  0  0  0  0  0  0  0  0  0  0  0
   -4.3416   -0.2049   31.8571 C   0  0  0  0  0  0  0  0  0  0  0  0
   -3.0068   -0.6129   31.8975 C   0  0  0  0  0  0  0  0  0  0  0  0
   -2.3458   -1.1030   30.8099 C   0  0  0  0  0  0  0  0  0  0  0  0
   -3.0724   -1.1971   29.5910 C   0  0  0  0  0  0  0  0  0  0  0  0
   -2.3121   -0.4475   33.2410 C   0  0  0  0  0  0  0  0  0  0  0  0
   -1.2262   -0.8803   33.3598 O   0  0  0  0  0  0  0  0  0  0  0  0
   -2.8437    0.3885   34.0930 O   0  0  0  0  0  0  0  0  0  0  0  0
   -5.4591   -2.3934   27.9581 C   0  0  0  0  0  0  0  0  0  0  0  0
   -6.5330   -2.8284   28.2176 O   0  0  0  0  0  0  0  0  0  0  0  0
   -6.9058   -3.7967   28.6048 C   0  0  1  0  0  0  0  0  0  0  0  0
   -8.2157   -4.0238   28.9337 C   0  0  0  0  0  0  0  0  0  0  0  0
   -8.4578   -5.1289   29.3251 F   0  0  0  0  0  0  0  0  0  0  0  0
   -8.6502   -3.1284   29.9059 F   0  0  0  0  0  0  0  0  0  0  0  0
   -9.0742   -3.7457   27.9194 F   0  0  0  0  0  0  0  0  0  0  0  0
   -2.3185   -1.7272   28.4279 C   0  0  0  0  0  0  0  0  0  0  0  0
   -6.4125   -4.9290   27.8090 N   0  0  0  0  0  0  0  0  0  0  0  0
   -6.6583   -5.1293   26.5956 C   0  0  0  0  0  0  0  0  0  0  0  0
   -6.1536   -5.7199   25.9243 C   0  0  0  0  0  0  0  0  0  0  0  0
   -5.0883   -6.4593   26.3193 C   0  0  0  0  0  0  0  0  0  0  0  0
   -5.2279   -5.6893   28.1888 C   0  0  0  0  0  0  0  0  0  0  0  0
   -4.5495   -6.4482   27.4789 C   0  0  0  0  0  0  0  0  0  0  0  0
   -4.8489   -5.4508   29.4822 F   0  0  0  0  0  0  0  0  0  0  0  0
   -1.8361   -0.8294   27.5498 C   0  0  0  0  0  0  0  0  0  0  0  0
   -2.6299   -0.3530   26.5672 C   0  0  0  0  0  0  0  0  0  0  0  0
  2  7  1  0
  7  8  1  0
  7  9  1  0
  7 10  1  0
  6 11  1  0
 11 12  2  0
 11 13  1  0
 13 14  1  0
 14 15  1  0
 18 21  1  0
 21 22  2  0
 21 23  1  0
 14 24  1  1
 24 25  1  0
 26 25  1  6
 26 27  1  0
 27 28  1  0
 27 29  1  0
 27 30  1  0
 20 31  1  0
 26 32  1  0
 32 33  1  0
 34 35  1  0
 32 36  1  0
 36 37  1  0
 36 38  1  0
 31 39  1  0
 39 40  1  0
 33 34  1  0
 35 37  1  0
 15 16  2  0
 16 17  1  0
 17 18  2  0
 18 19  1  0
 19 20  2  0
 20 15  1  0
  1  2  2  0
  2  3  1  0
  3  4  2  0
  4  6  1  0
  6  5  2  0
  5  1  1  0
M  END
$$$$
