No_4778-complexes_sdf/6BKW-FPZ/2024-09-17-14-21-01/
     RDKit          3D

 27 30  0  0  0  0  0  0  0  0999 V2000
   -7.7129    4.2099   27.0854 C   0  0  0  0  0  0  0  0  0  0  0  0
   -8.9133    4.4736   27.0998 C   0  0  0  0  0  0  0  0  0  0  0  0
   -9.4616    5.6470   27.6290 C   0  0  0  0  0  0  0  0  0  0  0  0
   -6.8722    5.1130   27.9248 C   0  0  0  0  0  0  0  0  0  0  0  0
   -7.3801    6.2535   28.4126 C   0  0  0  0  0  0  0  0  0  0  0  0
   -8.6734    6.5530   28.2150 C   0  0  0  0  0  0  0  0  0  0  0  0
   -9.7626    3.4440   26.3353 C   0  0  0  0  0  0  0  0  0  0  0  0
  -10.4757    3.6853   25.4323 C   0  0  0  0  0  0  0  0  0  0  0  0
  -11.1587    2.8206   24.5826 C   0  0  0  0  0  0  0  0  0  0  0  0
  -10.8201    1.8330   24.6142 C   0  0  0  0  0  0  0  0  0  0  0  0
   -9.5035    1.9938   26.1989 C   0  0  0  0  0  0  0  0  0  0  0  0
   -9.9791    1.1423   25.4775 C   0  0  0  0  0  0  0  0  0  0  0  0
  -11.5242    0.5784   23.7412 C   0  0  0  0  0  0  0  0  0  0  0  0
  -12.6735    0.6366   23.3140 C   0  0  0  0  0  0  0  0  0  0  0  0
  -10.6328   -0.4603   23.2283 C   0  0  0  0  0  0  0  0  0  0  0  0
  -13.5570    1.5902   23.6679 C   0  0  0  0  0  0  0  0  0  0  0  0
  -14.9412    1.5986   23.1777 C   0  0  0  0  0  0  0  0  0  0  0  0
  -15.2474    0.5847   22.3447 C   0  0  0  0  0  0  0  0  0  0  0  0
  -14.3916   -0.3660   21.9553 C   0  0  0  0  0  0  0  0  0  0  0  0
  -13.1134   -0.3564   22.4170 C   0  0  0  0  0  0  0  0  0  0  0  0
   -9.2759   -0.5494   23.7753 C   0  0  0  0  0  0  0  0  0  0  0  0
   -8.9312    0.2325   24.9461 C   0  0  0  0  0  0  0  0  0  0  0  0
   -7.6603   -0.0613   25.6009 C   0  0  0  0  0  0  0  0  0  0  0  0
   -6.8004   -0.9251   25.0071 N   0  0  0  0  0  0  0  0  0  0  0  0
   -6.5338   -1.1476   23.9436 C   0  0  0  0  0  0  0  0  0  0  0  0
   -5.4502   -1.9645   23.5871 C   0  0  0  0  0  0  0  0  0  0  0  0
   -7.4519   -0.8384   22.7689 C   0  0  0  0  0  0  0  0  0  0  0  0
  2  7  1  0
 13 14  1  0
 22 23  1  0
 23 24  1  0
 24 25  2  3
 25 26  1  0
 25 27  1  0
  7  8  2  0
  8  9  1  0
  9 10  2  0
 12 11  2  0
 11  7  1  0
 14 16  2  0
 16 17  1  0
 17 18  2  0
 18 19  1  0
 19 20  2  0
 20 14  1  0
  1  2  2  0
  2  3  1  0
  3  6  2  0
  6  5  1  0
  5  4  2  0
  4  1  1  0
 10 12  1  0
 12 22  1  0
 22 21  2  0
 21 15  1  0
 15 13  2  0
 13 10  1  0
M  END
$$$$
