No_4809-complexes_sdf/6BKW-FPZ/2024-09-17-14-21-01/
     RDKit          3D

 17 18  0  0  0  0  0  0  0  0999 V2000
   -7.9040    3.9820   27.1177 C   0  0  0  0  0  0  0  0  0  0  0  0
   -9.0711    4.3164   27.0630 C   0  0  0  0  0  0  0  0  0  0  0  0
   -9.8698    3.9665   25.9494 C   0  0  0  0  0  0  0  0  0  0  0  0
   -7.0332    4.5030   28.2025 C   0  0  0  0  0  0  0  0  0  0  0  0
   -9.4357    2.9501   25.1393 C   0  0  0  0  0  0  0  0  0  0  0  0
   -8.2567    2.3218   25.4797 C   0  0  0  0  0  0  0  0  0  0  0  0
   -7.5105    2.7966   26.5752 C   0  0  0  0  0  0  0  0  0  0  0  0
  -10.3743    2.6618   24.0569 C   0  0  0  0  0  0  0  0  0  0  0  0
  -10.9590    3.4951   23.2650 C   0  0  0  0  0  0  0  0  0  0  0  0
  -11.5916    3.2475   22.0782 C   0  0  0  0  0  0  0  0  0  0  0  0
  -10.9292    1.4095   23.9103 C   0  0  0  0  0  0  0  0  0  0  0  0
  -11.6152    0.9903   22.7588 C   0  0  0  0  0  0  0  0  0  0  0  0
  -12.0355    1.9872   21.8884 C   0  0  0  0  0  0  0  0  0  0  0  0
   -7.4578    5.6465   28.8324 N   0  0  0  0  0  0  0  0  0  0  0  0
   -5.7288    4.2254   28.2022 N   0  0  0  0  0  0  0  0  0  0  0  0
  -12.8286    1.6524   20.6907 C   0  0  0  0  0  0  0  0  0  0  0  0
  -13.0183    2.4118   19.7743 C   0  0  0  0  0  0  0  0  0  0  0  0
  1  4  1  0
  5  8  1  0
  4 14  2  0
  4 15  1  0
 13 16  1  0
 16 17  3  0
  8  9  2  0
  9 10  1  0
 10 13  2  0
 13 12  1  0
 12 11  2  0
 11  8  1  0
  1  2  2  0
  2  3  1  0
  3  5  2  0
  5  6  1  0
  6  7  2  0
  7  1  1  0
M  END
$$$$
