No_4485-complexes_sdf/6BKW-FPZ/2024-09-17-14-21-01/
     RDKit          3D

 24 27  0  0  0  0  0  0  0  0999 V2000
   -7.2496    3.8871   27.4508 C   0  0  0  0  0  0  0  0  0  0  0  0
   -8.5096    4.0291   27.2770 C   0  0  0  0  0  0  0  0  0  0  0  0
   -9.3502    2.8685   26.8763 C   0  0  0  0  0  0  0  0  0  0  0  0
   -6.6288    2.5513   27.4938 C   0  0  0  0  0  0  0  0  0  0  0  0
   -7.4365    1.4714   27.2032 C   0  0  0  0  0  0  0  0  0  0  0  0
   -8.7772    1.6579   26.9338 C   0  0  0  0  0  0  0  0  0  0  0  0
   -8.9367    5.4782   27.2187 C   0  0  0  0  0  0  0  0  0  0  0  0
   -8.0840    6.6775   27.6132 Cl  0  0  0  0  0  0  0  0  0  0  0  0
   -7.0297    0.0573   27.3005 C   0  0  0  0  0  0  0  0  0  0  0  0
   -5.6969   -0.1388   27.7149 C   0  0  0  0  0  0  0  0  0  0  0  0
   -4.8940    0.9788   28.1263 C   0  0  0  0  0  0  0  0  0  0  0  0
   -5.3185    2.3046   27.9913 C   0  0  0  0  0  0  0  0  0  0  0  0
   -3.6439    0.8158   28.5531 F   0  0  0  0  0  0  0  0  0  0  0  0
  -10.3916    5.6541   26.9384 C   0  0  0  0  0  0  0  0  0  0  0  0
  -11.2894    4.5611   26.6841 C   0  0  0  0  0  0  0  0  0  0  0  0
  -10.7371    3.2263   26.6766 C   0  0  0  0  0  0  0  0  0  0  0  0
  -11.6902    2.1515   26.4827 C   0  0  1  0  0  0  0  0  0  0  0  0
  -11.7446    1.5965   25.3561 C   0  0  0  0  0  0  0  0  0  0  0  0
  -12.7165    1.6885   24.7544 C   0  0  0  0  0  0  0  0  0  0  0  0
  -12.3332    1.6342   27.6624 C   0  0  0  0  0  0  0  0  0  0  0  0
  -13.6896    1.2016   27.3586 C   0  0  0  0  0  0  0  0  0  0  0  0
  -14.0553    1.2674   25.2299 C   0  0  0  0  0  0  0  0  0  0  0  0
  -14.1775    1.1388   26.4513 C   0  0  0  0  0  0  0  0  0  0  0  0
  -14.9501    1.0424   24.2849 F   0  0  0  0  0  0  0  0  0  0  0  0
  7  8  1  0
 11 13  1  0
 17 16  1  1
 17 18  1  0
 18 19  2  0
 17 20  1  0
 20 21  2  0
 19 22  1  0
 21 23  1  0
 22 23  2  0
 22 24  1  0
  1  2  2  0
  3  6  2  0
  6  5  1  0
  4  1  1  0
  4  5  2  0
  5  9  1  0
  9 10  2  0
 10 11  1  0
 11 12  2  0
 12  4  1  0
  2  3  1  0
  3 16  1  0
 16 15  2  0
 15 14  1  0
 14  7  2  0
  7  2  1  0
M  END
$$$$
