No_4906-complexes_sdf/6BKW-FPZ/2024-09-17-14-21-01/
     RDKit          3D

 21 23  0  0  0  0  0  0  0  0999 V2000
   -7.9040    3.9820   27.1177 C   0  0  0  0  0  0  0  0  0  0  0  0
   -8.2057    2.8231   26.8733 C   0  0  0  0  0  0  0  0  0  0  0  0
   -7.0130    4.3706   28.1140 C   0  0  0  0  0  0  0  0  0  0  0  0
   -7.4093    1.7370   27.3857 C   0  0  0  0  0  0  0  0  0  0  0  0
   -6.1943    2.1490   28.0403 C   0  0  0  0  0  0  0  0  0  0  0  0
   -5.9708    3.4680   28.3199 C   0  0  0  0  0  0  0  0  0  0  0  0
   -8.9091    5.0939   26.7085 C   0  0  1  0  0  0  0  0  0  0  0  0
   -9.0401    6.2709   27.4394 C   0  0  0  0  0  0  0  0  0  0  0  0
   -9.5816    4.9093   25.4686 C   0  0  0  0  0  0  0  0  0  0  0  0
   -5.2338    1.0851   28.4036 C   0  0  0  0  0  0  0  0  0  0  0  0
   -4.0445    1.3461   28.8491 N   0  0  0  0  0  0  0  0  0  0  0  0
   -5.6174   -0.3208   28.3678 C   0  0  0  0  0  0  0  0  0  0  0  0
   -4.6807   -1.2257   28.8655 C   0  0  0  0  0  0  0  0  0  0  0  0
   -3.4709   -0.9086   29.2903 C   0  0  0  0  0  0  0  0  0  0  0  0
   -3.1788    0.5057   29.3156 C   0  0  0  0  0  0  0  0  0  0  0  0
  -10.6321    4.0325   25.3341 C   0  0  0  0  0  0  0  0  0  0  0  0
  -11.2516    3.9451   24.0508 C   0  0  0  0  0  0  0  0  0  0  0  0
  -12.3844    3.1470   23.8311 C   0  0  0  0  0  0  0  0  0  0  0  0
  -12.8727    2.4434   24.9274 C   0  0  0  0  0  0  0  0  0  0  0  0
  -12.3374    2.5421   26.1634 C   0  0  0  0  0  0  0  0  0  0  0  0
  -11.2619    3.3832   26.4280 C   0  0  0  0  0  0  0  0  0  0  0  0
  1  7  1  0
  7  8  1  6
  7  9  1  0
  5 10  1  0
  9 16  1  0
  1  2  2  0
  2  4  1  0
  4  5  2  0
  5  6  1  0
  6  3  2  0
  3  1  1  0
 10 11  2  0
 11 15  1  0
 15 14  2  0
 14 13  1  0
 13 12  2  0
 12 10  1  0
 16 17  2  0
 17 18  1  0
 18 19  2  0
 19 20  1  0
 20 21  2  0
 21 16  1  0
M  END
$$$$
