No_4045-complexes_sdf/6BKW-FPZ/2024-09-17-14-21-01/
     RDKit          3D

 12 12  0  0  0  0  0  0  0  0999 V2000
   -7.9040    3.9820   27.1177 C   0  0  0  0  0  0  0  0  0  0  0  0
   -9.0711    4.3164   27.0630 C   0  0  0  0  0  0  0  0  0  0  0  0
   -9.8698    3.9665   25.9494 C   0  0  0  0  0  0  0  0  0  0  0  0
   -7.0332    4.5030   28.2025 C   0  0  0  0  0  0  0  0  0  0  0  0
  -10.9909    4.7237   25.5958 C   0  0  0  0  0  0  0  0  0  0  0  0
   -7.5840    5.4918   28.9036 N   0  0  0  0  0  0  0  0  0  0  0  0
  -11.7343    4.2277   24.5327 C   0  0  0  0  0  0  0  0  0  0  0  0
  -11.3332    3.4559   23.9054 C   0  0  0  0  0  0  0  0  0  0  0  0
  -10.1958    2.6818   23.9796 C   0  0  0  0  0  0  0  0  0  0  0  0
   -9.4124    3.0424   25.0940 C   0  0  0  0  0  0  0  0  0  0  0  0
   -9.2770    5.4395   28.0051 C   0  0  0  0  0  0  0  0  0  0  0  0
   -9.4710    3.1514   28.0342 C   0  0  0  0  0  0  0  0  0  0  0  0
  1  2  1  0
  2  3  2  3
  1  4  1  0
  3  5  1  0
  4  6  2  3
  5  7  1  0
  7  8  1  0
  8  9  1  0
  3 10  1  0
  9 10  1  0
  6 11  1  0
  2 12  1  0
M  END
$$$$
