No_4257-complexes_sdf/6BKW-FPZ/2024-09-17-14-21-01/
     RDKit          3D

 40 45  0  0  0  0  0  0  0  0999 V2000
   -7.9040    3.9820   27.1177 C   0  0  0  0  0  0  0  0  0  0  0  0
   -7.8663    4.8694   27.9238 C   0  0  0  0  0  0  0  0  0  0  0  0
   -7.4547    2.7080   27.4594 C   0  0  0  0  0  0  0  0  0  0  0  0
   -7.9337    1.5946   26.8372 C   0  0  0  0  0  0  0  0  0  0  0  0
   -8.9032    1.7881   25.8510 C   0  0  0  0  0  0  0  0  0  0  0  0
   -9.3787    2.9871   25.5530 C   0  0  0  0  0  0  0  0  0  0  0  0
   -8.9781    4.0300   26.2200 C   0  0  0  0  0  0  0  0  0  0  0  0
   -8.2132    6.2312   27.6173 N   0  0  0  0  0  0  0  0  0  0  0  0
   -9.1696    6.5863   26.7528 C   0  0  0  0  0  0  0  0  0  0  0  0
   -9.5393    5.4067   25.9211 C   0  0  0  0  0  0  0  0  0  0  0  0
   -7.3285    0.2615   27.1217 C   0  0  1  0  0  0  0  0  0  0  0  0
   -8.0674   -0.8494   27.2084 C   0  0  0  0  0  0  0  0  0  0  0  0
   -9.5085   -0.7239   27.1237 C   0  0  0  0  0  0  0  0  0  0  0  0
  -10.2673   -1.6911   27.2678 C   0  0  0  0  0  0  0  0  0  0  0  0
   -9.7127   -2.9610   27.5943 C   0  0  0  0  0  0  0  0  0  0  0  0
   -8.3871   -3.1273   27.7426 C   0  0  0  0  0  0  0  0  0  0  0  0
   -7.5372   -2.0693   27.6196 C   0  0  0  0  0  0  0  0  0  0  0  0
   -5.8761    0.2128   27.2323 C   0  0  0  0  0  0  0  0  0  0  0  0
   -5.1963    0.4691   28.4440 C   0  0  0  0  0  0  0  0  0  0  0  0
   -3.8073    0.6223   28.5132 C   0  0  0  0  0  0  0  0  0  0  0  0
   -3.0775    0.2712   27.3531 C   0  0  0  0  0  0  0  0  0  0  0  0
   -3.7150   -0.0120   26.2005 C   0  0  0  0  0  0  0  0  0  0  0  0
   -5.0763   -0.0714   26.0994 C   0  0  0  0  0  0  0  0  0  0  0  0
   -1.7403    0.3961   27.4746 O   0  0  0  0  0  0  0  0  0  0  0  0
  -10.3747    3.0700   24.4449 C   0  0  0  0  0  0  0  0  0  0  0  0
  -10.2916    2.4217   23.3994 N   0  0  0  0  0  0  0  0  0  0  0  0
   -9.9618    1.1999   23.3189 C   0  0  0  0  0  0  0  0  0  0  0  0
  -10.9285    2.8789   22.1362 C   0  0  0  0  0  0  0  0  0  0  0  0
   -9.6976    0.5336   22.0897 C   0  0  0  0  0  0  0  0  0  0  0  0
  -10.6686    2.3172   20.9299 C   0  0  0  0  0  0  0  0  0  0  0  0
  -10.1342    1.0811   20.9467 C   0  0  0  0  0  0  0  0  0  0  0  0
  -11.4976    3.6609   24.7799 O   0  0  0  0  0  0  0  0  0  0  0  0
  -11.7737   -1.6067   27.1412 C   0  0  0  0  0  0  0  0  0  0  0  0
  -12.4407   -0.8711   28.0488 C   0  0  0  0  0  0  0  0  0  0  0  0
  -13.7849   -0.5798   27.9042 C   0  0  0  0  0  0  0  0  0  0  0  0
  -14.4372   -1.1657   26.8109 C   0  0  0  0  0  0  0  0  0  0  0  0
  -13.7764   -1.9036   25.8937 C   0  0  0  0  0  0  0  0  0  0  0  0
  -12.4101   -2.0743   26.0261 C   0  0  0  0  0  0  0  0  0  0  0  0
  -14.4663   -2.4136   24.7135 C   0  0  0  0  0  0  0  0  0  0  0  0
  -13.8767   -3.0399   23.8563 C   0  0  0  0  0  0  0  0  0  0  0  0
 11  4  1  6
 11 18  1  0
 21 24  1  0
  6 25  1  0
 25 26  1  0
 26 27  1  0
 26 28  1  0
 29 31  1  0
 30 31  1  0
 25 32  2  0
 14 33  1  0
 37 39  1  0
 39 40  2  0
 11 12  1  0
 27 29  1  0
 30 28  1  0
 12 13  2  0
 13 14  1  0
 14 15  2  0
 15 16  1  0
 16 17  2  0
 17 12  1  0
  1  2  2  0
  2  8  1  0
  8  9  2  0
  9 10  1  0
 10  7  2  0
 18 19  2  0
 19 20  1  0
 20 21  2  0
 21 22  1  0
 22 23  2  0
 23 18  1  0
  1  3  1  0
  3  4  2  0
  4  5  1  0
  5  6  2  0
  6  7  1  0
  7  1  1  0
 33 34  2  0
 34 35  1  0
 35 36  2  0
 36 37  1  0
 37 38  2  0
 38 33  1  0
M  END
$$$$
