No_4115-complexes_sdf/6BKW-FPZ/2024-09-17-14-21-01/
     RDKit          3D

 40 44  0  0  0  0  0  0  0  0999 V2000
   -7.7129    4.2099   27.0854 C   0  0  0  0  0  0  0  0  0  0  0  0
   -8.9133    4.4736   27.0998 C   0  0  0  0  0  0  0  0  0  0  0  0
   -9.4616    5.6470   27.6290 C   0  0  0  0  0  0  0  0  0  0  0  0
   -6.8722    5.1130   27.9248 C   0  0  0  0  0  0  0  0  0  0  0  0
   -7.3801    6.2535   28.4126 C   0  0  0  0  0  0  0  0  0  0  0  0
   -8.6734    6.5530   28.2150 C   0  0  0  0  0  0  0  0  0  0  0  0
   -9.8157    3.4887   26.3527 C   0  0  0  0  0  0  0  0  0  0  0  0
  -10.0926    2.3125   26.8650 C   0  0  0  0  0  0  0  0  0  0  0  0
   -9.5054    1.9979   28.2122 C   0  0  0  0  0  0  0  0  0  0  0  0
  -10.0768    1.1773   26.0309 C   0  0  0  0  0  0  0  0  0  0  0  0
  -10.6196    1.2025   24.9413 C   0  0  0  0  0  0  0  0  0  0  0  0
  -10.9285    0.0907   24.1038 C   0  0  0  0  0  0  0  0  0  0  0  0
  -10.4573   -1.1415   24.5416 C   0  0  0  0  0  0  0  0  0  0  0  0
   -9.8191   -1.2373   25.7372 C   0  0  0  0  0  0  0  0  0  0  0  0
   -9.6383   -0.1580   26.5875 C   0  0  0  0  0  0  0  0  0  0  0  0
  -10.5254    4.0305   25.2221 C   0  0  0  0  0  0  0  0  0  0  0  0
  -11.6196    4.6462   25.1278 C   0  0  0  0  0  0  0  0  0  0  0  0
  -12.3545    4.8365   23.9496 C   0  0  0  0  0  0  0  0  0  0  0  0
  -12.0199    4.2150   23.0026 C   0  0  0  0  0  0  0  0  0  0  0  0
  -10.7443    3.6549   22.7720 C   0  0  0  0  0  0  0  0  0  0  0  0
   -9.9768    3.4475   24.0005 C   0  0  0  0  0  0  0  0  0  0  0  0
  -10.2341    3.1018   21.5463 C   0  0  0  0  0  0  0  0  0  0  0  0
   -9.6750    1.9364   21.3887 C   0  0  0  0  0  0  0  0  0  0  0  0
  -10.3204    3.9921   20.4178 C   0  0  0  0  0  0  0  0  0  0  0  0
   -9.8817    3.5864   19.1224 C   0  0  0  0  0  0  0  0  0  0  0  0
   -9.5408    0.9960   22.4498 C   0  0  0  0  0  0  0  0  0  0  0  0
   -8.5147    0.1559   22.2359 C   0  0  0  0  0  0  0  0  0  0  0  0
  -12.0792    0.0308   23.4785 N   0  0  0  0  0  0  0  0  0  0  0  0
  -13.3080    0.0014   23.9595 C   0  0  0  0  0  0  0  0  0  0  0  0
  -13.6290   -0.0342   25.1452 C   0  0  0  0  0  0  0  0  0  0  0  0
  -14.9721    0.0686   25.6384 C   0  0  0  0  0  0  0  0  0  0  0  0
  -14.3884    0.0299   22.9679 C   0  0  0  0  0  0  0  0  0  0  0  0
  -15.7063    0.0487   23.3567 C   0  0  0  0  0  0  0  0  0  0  0  0
  -15.9855    0.0802   24.7152 C   0  0  0  0  0  0  0  0  0  0  0  0
   -8.5008   -0.8869   21.3076 C   0  0  0  0  0  0  0  0  0  0  0  0
   -7.3965   -1.7690   21.1712 C   0  0  0  0  0  0  0  0  0  0  0  0
   -7.3235   -2.7932   20.1955 C   0  0  0  0  0  0  0  0  0  0  0  0
   -8.4408   -2.8620   19.3218 C   0  0  0  0  0  0  0  0  0  0  0  0
   -9.5482   -2.0498   19.4744 C   0  0  0  0  0  0  0  0  0  0  0  0
   -9.5652   -1.0801   20.4238 C   0  0  0  0  0  0  0  0  0  0  0  0
  2  7  1  0
  7  8  2  3
  8  9  1  0
  8 10  1  0
  7 16  1  0
 20 22  1  0
 22 23  2  3
 22 24  1  0
 24 25  1  0
 23 26  1  0
 26 27  1  0
 12 28  1  0
 28 29  1  0
 27 35  1  0
  1  2  2  0
  2  3  1  0
  3  6  2  0
  6  5  1  0
  5  4  2  0
  4  1  1  0
 29 30  2  0
 30 31  1  0
 31 34  2  0
 34 33  1  0
 33 32  2  0
 32 29  1  0
 35 36  2  0
 36 37  1  0
 37 38  2  0
 38 39  1  0
 39 40  2  0
 40 35  1  0
 10 11  2  0
 11 12  1  0
 12 13  2  0
 13 14  1  0
 14 15  2  0
 15 10  1  0
 16 17  2  0
 17 18  1  0
 18 19  2  0
 19 20  1  0
 20 21  2  0
 21 16  1  0
M  END
$$$$
