No_4101-complexes_sdf/6BKW-FPZ/2024-09-17-14-21-01/
     RDKit          3D

 16 17  0  0  0  0  0  0  0  0999 V2000
   -7.9040    3.9820   27.1177 C   0  0  0  0  0  0  0  0  0  0  0  0
   -7.8663    4.8694   27.9238 C   0  0  0  0  0  0  0  0  0  0  0  0
   -9.0501    3.8017   26.2617 C   0  0  0  0  0  0  0  0  0  0  0  0
   -9.1826    2.7026   25.3575 C   0  0  0  0  0  0  0  0  0  0  0  0
   -8.6940    6.0131   27.8614 C   0  0  0  0  0  0  0  0  0  0  0  0
   -9.7382    4.9916   26.1006 C   0  0  0  0  0  0  0  0  0  0  0  0
   -9.6356    6.0254   26.9506 C   0  0  0  0  0  0  0  0  0  0  0  0
   -8.7468    1.5427   25.7756 N   0  0  0  0  0  0  0  0  0  0  0  0
   -8.1501    1.3794   26.8791 C   0  0  0  0  0  0  0  0  0  0  0  0
   -7.6638    0.0603   27.2292 C   0  0  0  0  0  0  0  0  0  0  0  0
   -8.8084    0.2914   25.0965 C   0  0  0  0  0  0  0  0  0  0  0  0
   -8.1632   -0.5738   26.0362 C   0  0  0  0  0  0  0  0  0  0  0  0
   -9.8372    2.8199   24.2870 O   0  0  0  0  0  0  0  0  0  0  0  0
   -8.0003   -2.0026   25.7945 C   0  0  0  0  0  0  0  0  0  0  0  0
   -7.2543   -2.5763   26.1842 C   0  0  0  0  0  0  0  0  0  0  0  0
   -6.3726   -2.0339   27.3780 C   0  0  0  0  0  0  0  0  0  0  0  0
  3  4  1  0
  4  8  1  0
  8  9  1  0
  9 10  2  0
  8 11  1  0
 10 12  1  0
 11 12  1  0
  4 13  2  0
 12 14  1  0
 14 15  2  3
 15 16  1  0
  1  2  2  0
  2  5  1  0
  5  7  2  0
  7  6  1  0
  6  3  2  0
  3  1  1  0
M  END
$$$$
