No_4671-complexes_sdf/6BKW-FPZ/2024-09-17-14-21-01/
     RDKit          3D

 24 27  0  0  0  0  0  0  0  0999 V2000
   -7.7129    4.2099   27.0854 C   0  0  0  0  0  0  0  0  0  0  0  0
   -7.7814    5.1722   27.8972 C   0  0  0  0  0  0  0  0  0  0  0  0
   -8.7889    3.2468   27.2220 C   0  0  0  0  0  0  0  0  0  0  0  0
   -8.5940    1.9755   26.6525 C   0  0  0  0  0  0  0  0  0  0  0  0
   -9.4990    1.3567   25.9026 C   0  0  0  0  0  0  0  0  0  0  0  0
   -9.0214    5.8041   28.2929 C   0  0  0  0  0  0  0  0  0  0  0  0
   -9.8472    3.8228   27.9200 C   0  0  0  0  0  0  0  0  0  0  0  0
  -10.0038    4.9638   28.4576 C   0  0  0  0  0  0  0  0  0  0  0  0
   -9.2228    0.1123   25.3071 C   0  0  0  0  0  0  0  0  0  0  0  0
   -7.9750   -0.4627   25.4980 C   0  0  0  0  0  0  0  0  0  0  0  0
   -7.0484    0.1028   26.3362 C   0  0  0  0  0  0  0  0  0  0  0  0
   -7.2911    1.3556   26.9598 C   0  0  0  0  0  0  0  0  0  0  0  0
  -11.0633    2.7607   28.0345 C   0  0  0  0  0  0  0  0  0  0  0  0
  -12.3266    3.1341   27.5001 C   0  0  0  0  0  0  0  0  0  0  0  0
  -13.2570    2.2432   27.3703 C   0  0  0  0  0  0  0  0  0  0  0  0
  -13.0267    0.9171   27.8907 C   0  0  0  0  0  0  0  0  0  0  0  0
  -11.7699    0.5184   28.3917 C   0  0  0  0  0  0  0  0  0  0  0  0
  -10.7717    1.5011   28.4592 C   0  0  0  0  0  0  0  0  0  0  0  0
  -10.1829   -0.5219   24.4148 C   0  0  0  0  0  0  0  0  0  0  0  0
  -11.1132    0.0366   23.7427 C   0  0  0  0  0  0  0  0  0  0  0  0
  -12.1240   -0.5904   23.0940 C   0  0  0  0  0  0  0  0  0  0  0  0
  -10.2089   -1.9655   24.4042 C   0  0  0  0  0  0  0  0  0  0  0  0
  -11.1751   -2.6393   23.7070 C   0  0  0  0  0  0  0  0  0  0  0  0
  -12.1361   -1.9378   23.0269 C   0  0  0  0  0  0  0  0  0  0  0  0
  3  4  1  0
  7 13  1  0
  9 19  1  0
 13 14  2  0
 14 15  1  0
 15 16  2  0
 16 17  1  0
 17 18  2  0
 18 13  1  0
  4  5  2  0
  5  9  1  0
  9 10  2  0
 10 11  1  0
 11 12  2  0
 12  4  1  0
 19 20  2  0
 20 21  1  0
 21 24  2  0
 24 23  1  0
 23 22  2  0
 22 19  1  0
  1  2  2  0
  2  6  1  0
  6  8  2  0
  8  7  1  0
  7  3  2  0
  3  1  1  0
M  END
$$$$
