No_46-complexes_sdf/6BKW-FPZ/2024-09-17-14-21-01/
     RDKit          3D

 15 16  0  0  0  0  0  0  0  0999 V2000
   -7.9040    3.9820   27.1177 C   0  0  0  0  0  0  0  0  0  0  0  0
   -7.8663    4.8694   27.9238 C   0  0  0  0  0  0  0  0  0  0  0  0
   -9.0491    3.8523   26.2542 C   0  0  0  0  0  0  0  0  0  0  0  0
   -8.7661    5.9491   27.9690 C   0  0  0  0  0  0  0  0  0  0  0  0
   -9.9295    4.8502   26.2323 C   0  0  0  0  0  0  0  0  0  0  0  0
   -9.8077    5.9288   27.0933 C   0  0  0  0  0  0  0  0  0  0  0  0
   -9.2993    2.7337   25.3516 C   0  0  0  0  0  0  0  0  0  0  0  0
   -8.7677    1.5610   25.6751 N   0  0  0  0  0  0  0  0  0  0  0  0
   -9.3167    0.5957   25.9652 C   0  0  0  0  0  0  0  0  0  0  0  0
  -10.6530    0.4986   26.0639 C   0  0  0  0  0  0  0  0  0  0  0  0
   -8.5331   -0.6580   26.3001 C   0  0  0  0  0  0  0  0  0  0  0  0
   -8.9481   -1.6329   26.6758 C   0  0  0  0  0  0  0  0  0  0  0  0
  -11.2349   -0.7712   26.5526 C   0  0  0  0  0  0  0  0  0  0  0  0
  -10.4000   -1.8119   26.9023 C   0  0  0  0  0  0  0  0  0  0  0  0
   -9.7274    2.9299   24.2162 O   0  0  0  0  0  0  0  0  0  0  0  0
  3  7  1  0
  7  8  1  0
  8  9  1  0
  7 15  2  0
  9 10  2  0
 10 13  1  0
 13 14  2  0
 14 12  1  0
 12 11  2  0
 11  9  1  0
  1  2  2  0
  2  4  1  0
  4  6  2  0
  6  5  1  0
  5  3  2  0
  3  1  1  0
M  END
$$$$
