No_4564-complexes_sdf/6BKW-FPZ/2024-09-17-14-21-01/
     RDKit          3D

 14 13  0  0  0  0  0  0  0  0999 V2000
   -7.9040    3.9820   27.1177 C   0  0  0  0  0  0  0  0  0  0  0  0
   -9.0711    4.3164   27.0630 C   0  0  1  0  0  0  0  0  0  0  0  0
   -9.5294    5.4517   27.7215 C   0  0  0  0  0  0  0  0  0  0  0  0
   -9.9845    3.5634   26.2189 C   0  0  0  0  0  0  0  0  0  0  0  0
  -10.5758    2.5046   26.7628 C   0  0  0  0  0  0  0  0  0  0  0  0
  -10.4293    2.0903   27.9866 C   0  0  0  0  0  0  0  0  0  0  0  0
   -7.2368    3.9031   28.4131 C   0  0  0  0  0  0  0  0  0  0  0  0
   -5.8230    3.5314   28.2127 C   0  0  0  0  0  0  0  0  0  0  0  0
  -11.4748    1.6111   25.9194 C   0  0  0  0  0  0  0  0  0  0  0  0
  -11.9708    1.7376   24.8524 C   0  0  0  0  0  0  0  0  0  0  0  0
  -11.3878    1.7881   23.9659 C   0  0  0  0  0  0  0  0  0  0  0  0
  -11.4045    2.8451   22.9654 C   0  0  0  0  0  0  0  0  0  0  0  0
  -10.3449    3.0639   22.0887 C   0  0  0  0  0  0  0  0  0  0  0  0
  -10.2944    4.2179   21.2720 C   0  0  0  0  0  0  0  0  0  0  0  0
  1  2  1  0
  2  3  1  6
  2  4  1  0
  4  5  1  0
  5  6  1  0
  1  7  1  0
  7  8  1  0
  5  9  1  0
  9 10  1  0
 10 11  2  3
 11 12  1  0
 12 13  2  3
 13 14  1  0
M  END
$$$$
