No_4415-complexes_sdf/6BKW-FPZ/2024-09-17-14-21-01/
     RDKit          3D

 22 24  0  0  0  0  0  0  0  0999 V2000
   -7.9040    3.9820   27.1177 C   0  0  0  0  0  0  0  0  0  0  0  0
   -7.8663    4.8694   27.9238 C   0  0  0  0  0  0  0  0  0  0  0  0
   -9.0491    3.8523   26.2542 C   0  0  0  0  0  0  0  0  0  0  0  0
   -8.7661    5.9491   27.9690 C   0  0  0  0  0  0  0  0  0  0  0  0
   -9.9295    4.8502   26.2323 C   0  0  0  0  0  0  0  0  0  0  0  0
   -9.8077    5.9288   27.0933 C   0  0  0  0  0  0  0  0  0  0  0  0
   -6.8765    2.8741   27.3811 C   0  0  0  0  0  0  0  0  0  0  0  0
   -5.8569    3.0877   28.0858 N   0  0  0  0  0  0  0  0  0  0  0  0
   -7.1926    1.6281   26.9439 N   0  0  0  0  0  0  0  0  0  0  0  0
   -6.1589    0.8168   27.3560 C   0  0  0  0  0  0  0  0  0  0  0  0
   -6.0177   -0.5388   27.1959 C   0  0  0  0  0  0  0  0  0  0  0  0
   -5.1472    1.5714   28.0539 C   0  0  2  0  0  0  0  0  0  0  0  0
   -7.0158   -1.3256   27.0163 C   0  0  0  0  0  0  0  0  0  0  0  0
   -8.3691   -0.7397   27.0812 C   0  0  0  0  0  0  0  0  0  0  0  0
   -9.4807   -1.5859   26.8755 C   0  0  0  0  0  0  0  0  0  0  0  0
  -10.7847   -0.9966   27.0582 C   0  0  0  0  0  0  0  0  0  0  0  0
  -10.8963    0.3692   27.3988 C   0  0  0  0  0  0  0  0  0  0  0  0
   -9.7818    1.1058   27.6936 C   0  0  0  0  0  0  0  0  0  0  0  0
   -8.5566    0.5845   27.5223 C   0  0  0  0  0  0  0  0  0  0  0  0
   -8.3090    0.4438   28.5922 O   0  0  0  0  0  0  0  0  0  0  0  0
   -7.4839    1.4735   25.4165 C   0  0  0  0  0  0  0  0  0  0  0  0
   -4.1077    1.4468   28.6072 F   0  0  0  0  0  0  0  0  0  0  0  0
  1  7  1  0
  7  8  2  0
  7  9  1  0
  9 10  1  0
 10 11  1  0
  8 12  1  0
 10 12  1  0
 11 13  2  3
 13 14  1  0
 19 20  1  0
  9 21  1  0
 12 22  1  1
 14 15  2  0
 15 16  1  0
 16 17  2  0
 17 18  1  0
 18 19  2  0
 19 14  1  0
  1  2  2  0
  2  4  1  0
  4  6  2  0
  6  5  1  0
  5  3  2  0
  3  1  1  0
M  END
$$$$
