No_4493-complexes_sdf/6BKW-FPZ/2024-09-17-14-21-01/
     RDKit          3D

 21 23  0  0  0  0  0  0  0  0999 V2000
   -7.9040    3.9820   27.1177 C   0  0  0  0  0  0  0  0  0  0  0  0
   -9.0711    4.3164   27.0630 C   0  0  0  0  0  0  0  0  0  0  0  0
   -9.5294    5.4517   27.7215 C   0  0  0  0  0  0  0  0  0  0  0  0
   -6.9328    4.7309   27.8881 C   0  0  0  0  0  0  0  0  0  0  0  0
   -7.3666    5.8455   28.5488 C   0  0  0  0  0  0  0  0  0  0  0  0
   -8.6669    6.2428   28.4199 C   0  0  0  0  0  0  0  0  0  0  0  0
  -10.0479    3.5083   26.2510 C   0  0  0  0  0  0  0  0  0  0  0  0
   -9.7487    3.3855   24.9113 C   0  0  0  0  0  0  0  0  0  0  0  0
  -10.5142    2.6814   23.9902 C   0  0  0  0  0  0  0  0  0  0  0  0
  -11.6898    2.1313   24.4168 C   0  0  0  0  0  0  0  0  0  0  0  0
  -11.2523    3.0121   26.5975 C   0  0  0  0  0  0  0  0  0  0  0  0
  -12.0785    2.2965   25.7807 C   0  0  0  0  0  0  0  0  0  0  0  0
  -10.0566    2.5730   22.6004 C   0  0  0  0  0  0  0  0  0  0  0  0
   -9.7668    1.3181   22.1227 C   0  0  0  0  0  0  0  0  0  0  0  0
   -8.7155    0.6696   22.6881 C   0  0  0  0  0  0  0  0  0  0  0  0
   -8.3330   -0.6443   22.2727 C   0  0  0  0  0  0  0  0  0  0  0  0
   -9.0174   -1.1824   21.1599 C   0  0  0  0  0  0  0  0  0  0  0  0
  -10.4487    0.8073   21.0352 C   0  0  0  0  0  0  0  0  0  0  0  0
  -11.4602    1.5008   20.3861 C   0  0  0  0  0  0  0  0  0  0  0  0
  -10.0298   -0.4573   20.5604 C   0  0  0  0  0  0  0  0  0  0  0  0
  -13.3524    1.7409   26.1922 C   0  0  0  0  0  0  0  0  0  0  0  0
  2  7  1  0
  9 13  1  0
 13 14  1  0
 18 19  1  0
 12 21  1  0
  7  8  2  0
  8  9  1  0
  9 10  2  0
 10 12  1  0
 12 11  2  0
 11  7  1  0
  1  2  2  0
  2  3  1  0
  3  6  2  0
  6  5  1  0
  5  4  2  0
  4  1  1  0
 14 15  2  0
 15 16  1  0
 16 17  2  0
 17 20  1  0
 20 18  2  0
 18 14  1  0
M  END
$$$$
