No_4717-complexes_sdf/6BKW-FPZ/2024-09-17-14-21-01/
     RDKit          3D

 15 16  0  0  0  0  0  0  0  0999 V2000
   -7.9040    3.9820   27.1177 C   0  0  0  0  0  0  0  0  0  0  0  0
   -8.2057    2.8231   26.8733 C   0  0  0  0  0  0  0  0  0  0  0  0
   -9.2962    2.4021   26.1155 C   0  0  0  0  0  0  0  0  0  0  0  0
   -6.8682    4.5169   28.0704 C   0  0  0  0  0  0  0  0  0  0  0  0
  -10.0578    3.3688   25.5520 C   0  0  0  0  0  0  0  0  0  0  0  0
   -9.6997    4.7480   25.6981 C   0  0  0  0  0  0  0  0  0  0  0  0
   -8.6783    5.1111   26.5262 C   0  0  0  0  0  0  0  0  0  0  0  0
   -8.2232    6.4105   26.9652 C   0  0  0  0  0  0  0  0  0  0  0  0
   -8.8607    7.5189   26.5803 N   0  0  0  0  0  0  0  0  0  0  0  0
   -7.2216    6.3900   27.8954 N   0  0  0  0  0  0  0  0  0  0  0  0
   -7.2696    1.8836   27.5259 N   0  0  0  0  0  0  0  0  0  0  0  0
   -6.5299    0.9022   26.9015 C   0  0  0  0  0  0  0  0  0  0  0  0
   -6.3394   -0.1103   27.6756 C   0  0  0  0  0  0  0  0  0  0  0  0
   -5.5749   -0.5024   28.4132 C   0  0  0  0  0  0  0  0  0  0  0  0
   -5.4772   -1.7415   29.1972 C   0  0  0  0  0  0  0  0  0  0  0  0
  1  4  1  0
  7  8  1  0
  8  9  1  0
  4 10  1  0
  8 10  2  0
  2 11  1  0
 11 12  1  0
 12 13  1  0
 13 14  2  3
 14 15  1  0
  1  2  2  0
  2  3  1  0
  3  5  2  0
  5  6  1  0
  6  7  2  0
  7  1  1  0
M  END
$$$$
