No_4555-complexes_sdf/6BKW-FPZ/2024-09-17-14-21-01/
     RDKit          3D

 35 37  0  0  0  0  0  0  0  0999 V2000
   -7.2496    3.8871   27.4508 C   0  0  0  0  0  0  0  0  0  0  0  0
   -7.9379    4.9063   27.8518 C   0  0  0  0  0  0  0  0  0  0  0  0
   -7.5112    6.1898   27.6280 C   0  0  0  0  0  0  0  0  0  0  0  0
   -9.3085    4.6933   28.2930 C   0  0  0  0  0  0  0  0  0  0  0  0
   -7.7804    2.5137   27.6844 C   0  0  0  0  0  0  0  0  0  0  0  0
   -9.1546    2.3398   27.7350 C   0  0  0  0  0  0  0  0  0  0  0  0
   -9.8867    3.4718   28.2310 C   0  0  0  0  0  0  0  0  0  0  0  0
   -6.8297    1.4841   27.0725 C   0  0  0  0  0  0  0  0  0  0  0  0
   -7.2041    0.9066   26.0967 F   0  0  0  0  0  0  0  0  0  0  0  0
   -6.8208    0.5510   28.0529 F   0  0  0  0  0  0  0  0  0  0  0  0
   -5.6366    1.8697   27.0489 F   0  0  0  0  0  0  0  0  0  0  0  0
  -11.3083    3.2169   28.6397 C   0  0  0  0  0  0  0  0  0  0  0  0
  -12.2793    4.1843   28.3143 C   0  0  0  0  0  0  0  0  0  0  0  0
  -13.5213    4.1700   28.9196 C   0  0  0  0  0  0  0  0  0  0  0  0
  -14.4711    5.1061   28.5347 C   0  0  0  0  0  0  0  0  0  0  0  0
  -15.6102    5.3606   29.2072 C   0  0  0  0  0  0  0  0  0  0  0  0
  -15.8676    4.5106   30.3183 C   0  0  0  0  0  0  0  0  0  0  0  0
  -15.0010    3.5585   30.7217 C   0  0  0  0  0  0  0  0  0  0  0  0
  -13.7667    3.4471   30.0967 C   0  0  0  0  0  0  0  0  0  0  0  0
   -8.4545    7.0794   27.9575 F   0  0  0  0  0  0  0  0  0  0  0  0
   -6.5463    6.5544   28.5206 F   0  0  0  0  0  0  0  0  0  0  0  0
   -7.0673    6.4504   26.4409 F   0  0  0  0  0  0  0  0  0  0  0  0
  -11.7305    1.9626   29.1266 C   0  0  0  0  0  0  0  0  0  0  0  0
  -13.0341    2.0452   29.8337 C   0  0  0  0  0  0  0  0  0  0  0  0
  -15.3043    2.6167   31.8643 C   0  0  0  0  0  0  0  0  0  0  0  0
  -15.4097    2.5040   32.8614 F   0  0  0  0  0  0  0  0  0  0  0  0
  -16.0660    1.4405   31.1948 F   0  0  0  0  0  0  0  0  0  0  0  0
  -14.2732    2.0318   32.2749 F   0  0  0  0  0  0  0  0  0  0  0  0
  -16.5115    6.4964   28.9485 C   0  0  1  0  0  0  0  0  0  0  0  0
  -16.4660    7.8817   29.6934 Cl  0  0  0  0  0  0  0  0  0  0  0  0
  -17.4191    6.3652   27.8512 C   0  0  0  0  0  0  0  0  0  0  0  0
  -17.9458    7.2753   27.2987 C   0  0  0  0  0  0  0  0  0  0  0  0
  -17.4158    7.7787   26.1900 C   0  0  0  0  0  0  0  0  0  0  0  0
  -16.8441    7.0990   25.1453 C   0  0  0  0  0  0  0  0  0  0  0  0
  -16.2237    7.6036   24.0444 C   0  0  0  0  0  0  0  0  0  0  0  0
  2  3  1  0
  5  8  1  0
  8  9  1  0
  8 10  1  0
  8 11  1  0
  7 12  1  0
  3 20  1  0
  3 21  1  0
  3 22  1  0
 18 25  1  0
 25 26  1  0
 25 27  1  0
 25 28  1  0
 16 29  1  0
 29 30  1  6
 29 31  1  0
 31 32  1  0
 32 33  1  0
 33 34  2  3
 34 35  1  0
 14 15  2  0
 15 16  1  0
 16 17  2  0
 17 18  1  0
 18 19  2  0
  1  2  2  0
  2  4  1  0
  4  7  2  0
  7  6  1  0
  6  5  2  0
  5  1  1  0
 12 13  2  0
 13 14  1  0
 14 19  1  0
 19 24  1  0
 24 23  2  0
 23 12  1  0
M  END
$$$$
