No_4683-complexes_sdf/6BKW-FPZ/2024-09-17-14-21-01/
     RDKit          3D

 27 29  0  0  0  0  0  0  0  0999 V2000
   -7.7129    4.2099   27.0854 C   0  0  0  0  0  0  0  0  0  0  0  0
   -8.2112    3.0637   26.9225 C   0  0  0  0  0  0  0  0  0  0  0  0
   -8.5108    5.3904   26.9436 C   0  0  0  0  0  0  0  0  0  0  0  0
   -7.9752    6.6981   27.2112 C   0  0  0  0  0  0  0  0  0  0  0  0
   -7.4938    1.8178   27.3608 C   0  0  0  0  0  0  0  0  0  0  0  0
   -6.1616    2.0743   27.7406 C   0  0  0  0  0  0  0  0  0  0  0  0
   -5.3842    0.9111   28.1468 C   0  0  0  0  0  0  0  0  0  0  0  0
   -5.9508   -0.3230   28.1725 C   0  0  0  0  0  0  0  0  0  0  0  0
   -7.9245    0.5644   27.3513 C   0  0  0  0  0  0  0  0  0  0  0  0
   -7.2288   -0.4857   27.7892 C   0  0  0  0  0  0  0  0  0  0  0  0
   -9.4157    2.8763   26.2139 C   0  0  0  0  0  0  0  0  0  0  0  0
  -10.1628    4.0265   25.8499 C   0  0  0  0  0  0  0  0  0  0  0  0
  -11.3225    3.9444   25.1872 C   0  0  0  0  0  0  0  0  0  0  0  0
   -9.6386    5.2666   26.2339 C   0  0  0  0  0  0  0  0  0  0  0  0
  -11.4087    3.9650   23.7364 C   0  0  0  0  0  0  0  0  0  0  0  0
  -11.2698    3.0920   23.0556 C   0  0  0  0  0  0  0  0  0  0  0  0
  -11.0659    3.2404   21.5901 C   0  0  0  0  0  0  0  0  0  0  0  0
  -11.0265    4.5358   21.0546 C   0  0  0  0  0  0  0  0  0  0  0  0
  -11.0632    5.5859   21.9352 C   0  0  0  0  0  0  0  0  0  0  0  0
  -11.1325    5.3788   23.2601 C   0  0  0  0  0  0  0  0  0  0  0  0
   -4.1082    1.1639   28.5342 F   0  0  0  0  0  0  0  0  0  0  0  0
   -8.6528    7.8321   26.9416 N   0  0  0  0  0  0  0  0  0  0  0  0
   -6.8246    6.8119   27.7918 O   0  0  0  0  0  0  0  0  0  0  0  0
  -12.6389    3.8001   25.8386 C   0  0  0  0  0  0  0  0  0  0  0  0
  -12.7299    3.6776   27.1739 C   0  0  0  0  0  0  0  0  0  0  0  0
  -13.9513    3.6869   27.8624 C   0  0  0  0  0  0  0  0  0  0  0  0
  -15.0936    3.7448   27.0401 C   0  0  0  0  0  0  0  0  0  0  0  0
  3  4  1  0
  2  5  1  0
 12 13  1  0
 13 15  1  0
  7 21  1  0
  4 22  1  0
  4 23  2  0
 13 24  1  0
 24 25  1  0
 25 26  2  3
 26 27  1  0
  1  2  2  0
  2 11  1  0
 11 12  2  0
 12 14  1  0
 14  3  2  0
  3  1  1  0
  5  6  2  0
  6  7  1  0
  7  8  2  0
  8 10  1  0
 10  9  2  0
  9  5  1  0
 15 16  2  0
 16 17  1  0
 17 18  2  0
 18 19  1  0
 19 20  2  0
 20 15  1  0
M  END
$$$$
