No_4251-complexes_sdf/6BKW-FPZ/2024-09-17-14-21-01/
     RDKit          3D

 25 28  0  0  0  0  0  0  0  0999 V2000
   -7.9040    3.9820   27.1177 C   0  0  0  0  0  0  0  0  0  0  0  0
   -9.0711    4.3164   27.0630 C   0  0  0  0  0  0  0  0  0  0  0  0
   -9.5182    5.5541   27.5777 C   0  0  0  0  0  0  0  0  0  0  0  0
   -6.9424    4.7983   27.8424 C   0  0  0  0  0  0  0  0  0  0  0  0
   -7.3526    5.9739   28.3909 C   0  0  0  0  0  0  0  0  0  0  0  0
   -8.6479    6.3742   28.2169 C   0  0  0  0  0  0  0  0  0  0  0  0
  -10.2021    3.5782   26.4472 C   0  0  0  0  0  0  0  0  0  0  0  0
  -11.2961    3.3861   26.7089 C   0  0  0  0  0  0  0  0  0  0  0  0
  -11.6982    3.8842   28.1597 C   0  0  0  0  0  0  0  0  0  0  0  0
   -9.7364    3.0435   25.0797 C   0  0  0  0  0  0  0  0  0  0  0  0
  -13.0448    3.6275   28.6764 C   0  0  0  0  0  0  0  0  0  0  0  0
  -13.2597    3.7790   30.0193 C   0  0  0  0  0  0  0  0  0  0  0  0
  -10.3934    2.6505   24.4081 C   0  0  0  0  0  0  0  0  0  0  0  0
  -11.8101    2.3899   24.7100 C   0  0  0  0  0  0  0  0  0  0  0  0
  -12.2675    2.7750   25.9545 C   0  0  0  0  0  0  0  0  0  0  0  0
  -14.5191    3.9558   30.4656 C   0  0  0  0  0  0  0  0  0  0  0  0
  -15.6032    3.7336   29.6308 C   0  0  0  0  0  0  0  0  0  0  0  0
  -15.3652    3.4667   28.3076 C   0  0  0  0  0  0  0  0  0  0  0  0
  -14.1209    3.5576   27.8154 C   0  0  0  0  0  0  0  0  0  0  0  0
  -14.5344    4.0674   32.0208 C   0  0  0  0  0  0  0  0  0  0  0  0
  -14.9523    5.2857   32.5437 C   0  0  0  0  0  0  0  0  0  0  0  0
  -14.7522    5.5232   33.9157 C   0  0  0  0  0  0  0  0  0  0  0  0
  -14.1499    4.5495   34.7362 C   0  0  0  0  0  0  0  0  0  0  0  0
  -13.7608    3.3219   34.1894 C   0  0  0  0  0  0  0  0  0  0  0  0
  -13.8771    3.1043   32.7995 C   0  0  0  0  0  0  0  0  0  0  0  0
  2  7  1  0
  8  9  1  0
 16 20  1  0
  9 11  1  0
  1  2  2  0
  2  3  1  0
  3  6  2  0
  6  5  1  0
  5  4  2  0
  4  1  1  0
 11 12  2  0
 12 16  1  0
 16 17  2  0
 17 18  1  0
 18 19  2  0
 19 11  1  0
 20 21  2  0
 21 22  1  0
 22 23  2  0
 23 24  1  0
 24 25  2  0
 25 20  1  0
  7  8  2  0
  8 15  1  0
 15 14  2  0
 14 13  1  0
 13 10  2  0
 10  7  1  0
M  END
$$$$
