No_460-complexes_sdf/6BKW-FPZ/2024-09-17-14-21-01/
     RDKit          3D

 19 21  0  0  0  0  0  0  0  0999 V2000
   -7.9040    3.9820   27.1177 C   0  0  0  0  0  0  0  0  0  0  0  0
   -7.8663    4.8694   27.9238 C   0  0  0  0  0  0  0  0  0  0  0  0
   -9.0501    3.8017   26.2617 C   0  0  0  0  0  0  0  0  0  0  0  0
   -9.1826    2.7026   25.3575 C   0  0  2  0  0  0  0  0  0  0  0  0
   -8.6940    6.0131   27.8614 C   0  0  0  0  0  0  0  0  0  0  0  0
   -9.7382    4.9916   26.1006 C   0  0  0  0  0  0  0  0  0  0  0  0
   -9.6356    6.0254   26.9506 C   0  0  0  0  0  0  0  0  0  0  0  0
  -10.1184    2.0450   25.6010 N   0  0  0  0  0  0  0  0  0  0  0  0
  -10.3046    0.8903   25.1081 C   0  0  0  0  0  0  0  0  0  0  0  0
   -9.4023    0.3895   24.2944 C   0  0  0  0  0  0  0  0  0  0  0  0
   -9.2998   -0.7661   23.7727 C   0  0  0  0  0  0  0  0  0  0  0  0
   -8.2971   -1.2327   22.7643 C   0  0  0  0  0  0  0  0  0  0  0  0
   -7.2743   -0.2865   22.5024 C   0  0  0  0  0  0  0  0  0  0  0  0
   -7.3514    0.9239   23.0452 C   0  0  0  0  0  0  0  0  0  0  0  0
   -8.2815    1.2924   23.8688 C   0  0  0  0  0  0  0  0  0  0  0  0
   -8.1980    2.3459   24.6222 N   0  0  0  0  0  0  0  0  0  0  0  0
  -11.3085    0.1599   25.3508 O   0  0  0  0  0  0  0  0  0  0  0  0
   -6.8805    2.5660   27.3735 Cl  0  0  0  0  0  0  0  0  0  0  0  0
   -8.3365   -2.4085   22.2151 F   0  0  0  0  0  0  0  0  0  0  0  0
  4  3  1  1
  4  8  1  0
  8  9  1  0
  9 10  1  0
  4 16  1  0
 15 16  1  0
  9 17  2  0
  1 18  1  0
 12 19  1  0
 10 11  2  0
 11 12  1  0
 12 13  2  0
 13 14  1  0
 14 15  2  0
 15 10  1  0
  1  2  2  0
  2  5  1  0
  5  7  2  0
  7  6  1  0
  6  3  2  0
  3  1  1  0
M  END
$$$$
