No_410-complexes_sdf/6BKW-FPZ/2024-09-17-14-21-01/
     RDKit          3D

 24 26  0  0  0  0  0  0  0  0999 V2000
   -7.7129    4.2099   27.0854 C   0  0  0  0  0  0  0  0  0  0  0  0
   -8.2112    3.0637   26.9225 C   0  0  0  0  0  0  0  0  0  0  0  0
   -9.4446    2.8304   26.1868 C   0  0  0  0  0  0  0  0  0  0  0  0
   -8.4697    5.3956   26.7238 C   0  0  0  0  0  0  0  0  0  0  0  0
   -9.6172    5.2111   25.9513 C   0  0  0  0  0  0  0  0  0  0  0  0
  -10.0424    3.9782   25.6873 C   0  0  0  0  0  0  0  0  0  0  0  0
   -7.9172    6.7181   27.0124 C   0  0  0  0  0  0  0  0  0  0  0  0
   -7.2795    6.8092   28.0807 O   0  0  0  0  0  0  0  0  0  0  0  0
   -8.0935    7.7723   26.2537 O   0  0  0  0  0  0  0  0  0  0  0  0
   -7.4973    1.8070   27.3790 C   0  0  0  0  0  0  0  0  0  0  0  0
   -6.1372    1.8910   27.7443 C   0  0  0  0  0  0  0  0  0  0  0  0
   -5.4278    0.7494   28.1910 C   0  0  0  0  0  0  0  0  0  0  0  0
   -6.0837   -0.4647   28.1414 C   0  0  0  0  0  0  0  0  0  0  0  0
   -8.0257    0.5282   27.3541 C   0  0  0  0  0  0  0  0  0  0  0  0
   -7.4094   -0.5345   27.7874 C   0  0  0  0  0  0  0  0  0  0  0  0
   -4.0062    0.9169   28.5809 C   0  0  0  0  0  0  0  0  0  0  0  0
   -3.6174    0.4994   29.7056 O   0  0  0  0  0  0  0  0  0  0  0  0
   -3.1461    1.2488   27.6671 O   0  0  0  0  0  0  0  0  0  0  0  0
   -8.0980   -1.8223   27.8450 C   0  0  0  0  0  0  0  0  0  0  0  0
   -7.6021   -2.8564   28.1093 C   0  0  0  0  0  0  0  0  0  0  0  0
   -8.3424   -4.1286   28.2337 C   0  0  0  0  0  0  0  0  0  0  0  0
   -9.7041   -4.0401   27.9932 C   0  0  0  0  0  0  0  0  0  0  0  0
  -10.2999   -2.8317   27.6903 C   0  0  0  0  0  0  0  0  0  0  0  0
   -9.5485   -1.6909   27.6606 C   0  0  0  0  0  0  0  0  0  0  0  0
  4  7  1  0
  7  8  2  0
  7  9  1  0
  2 10  1  0
 12 16  1  0
 16 17  1  0
 16 18  2  0
 15 19  1  0
  1  2  2  0
  2  3  1  0
  3  6  2  0
  6  5  1  0
  5  4  2  0
  4  1  1  0
 10 11  2  0
 11 12  1  0
 12 13  2  0
 13 15  1  0
 15 14  2  0
 14 10  1  0
 19 20  2  0
 20 21  1  0
 21 22  2  0
 22 23  1  0
 23 24  2  0
 24 19  1  0
M  END
$$$$
