No_4411-complexes_sdf/6BKW-FPZ/2024-09-17-14-21-01/
     RDKit          3D

 20 21  0  0  0  0  0  0  0  0999 V2000
   -7.7129    4.2099   27.0854 C   0  0  0  0  0  0  0  0  0  0  0  0
   -8.2112    3.0637   26.9225 C   0  0  0  0  0  0  0  0  0  0  0  0
   -8.5108    5.3904   26.9436 C   0  0  0  0  0  0  0  0  0  0  0  0
   -9.5333    5.2878   26.5026 C   0  0  0  0  0  0  0  0  0  0  0  0
   -9.5076    2.8934   26.4895 C   0  0  0  0  0  0  0  0  0  0  0  0
  -10.2017    4.0665   26.2286 C   0  0  0  0  0  0  0  0  0  0  0  0
   -7.8396    6.5584   27.2515 F   0  0  0  0  0  0  0  0  0  0  0  0
   -7.1932    1.9083   27.2269 C   0  0  0  0  0  0  0  0  0  0  0  0
   -7.6205    0.5667   26.9329 C   0  0  0  0  0  0  0  0  0  0  0  0
   -6.7251   -0.4321   27.2744 C   0  0  0  0  0  0  0  0  0  0  0  0
   -5.4904   -0.1218   27.8866 C   0  0  0  0  0  0  0  0  0  0  0  0
   -5.1621    1.2039   28.1585 C   0  0  0  0  0  0  0  0  0  0  0  0
   -5.9686    2.1814   27.8542 C   0  0  0  0  0  0  0  0  0  0  0  0
   -4.5603   -1.2252   28.2679 C   0  0  0  0  0  0  0  0  0  0  0  0
   -4.8355   -2.1727   28.9181 F   0  0  0  0  0  0  0  0  0  0  0  0
   -3.9537   -1.7002   27.0545 F   0  0  0  0  0  0  0  0  0  0  0  0
   -3.3637   -0.6806   28.8593 F   0  0  0  0  0  0  0  0  0  0  0  0
  -11.5702    3.9439   25.6758 C   0  0  0  0  0  0  0  0  0  0  0  0
  -12.6086    4.0081   26.5259 C   0  0  0  0  0  0  0  0  0  0  0  0
  -13.9523    3.9596   26.0725 C   0  0  0  0  0  0  0  0  0  0  0  0
  3  7  1  0
  2  8  1  0
 11 14  1  0
 14 15  1  0
 14 16  1  0
 14 17  1  0
  6 18  1  0
 18 19  2  3
 19 20  1  0
  8  9  2  0
  9 10  1  0
 10 11  2  0
 11 12  1  0
 12 13  2  0
 13  8  1  0
  1  2  2  0
  2  5  1  0
  5  6  2  0
  6  4  1  0
  4  3  2  0
  3  1  1  0
M  END
$$$$
