No_4727-complexes_sdf/6BKW-FPZ/2024-09-17-14-21-01/
     RDKit          3D

 16 17  0  0  0  0  0  0  0  0999 V2000
   -7.9040    3.9820   27.1177 C   0  0  0  0  0  0  0  0  0  0  0  0
   -9.0711    4.3164   27.0630 C   0  0  0  0  0  0  0  0  0  0  0  0
   -9.5294    5.4517   27.7215 C   0  0  0  0  0  0  0  0  0  0  0  0
   -6.9328    4.7309   27.8881 C   0  0  0  0  0  0  0  0  0  0  0  0
   -7.3377    5.8421   28.5537 C   0  0  0  0  0  0  0  0  0  0  0  0
   -8.6411    6.2609   28.3972 C   0  0  0  0  0  0  0  0  0  0  0  0
  -10.0493    3.4953   26.2711 C   0  0  0  0  0  0  0  0  0  0  0  0
  -10.5585    3.8087   25.3241 C   0  0  0  0  0  0  0  0  0  0  0  0
  -11.4299    3.0969   24.3973 C   0  0  0  0  0  0  0  0  0  0  0  0
  -11.6073    1.8085   24.6877 C   0  0  0  0  0  0  0  0  0  0  0  0
  -10.1142    2.0455   26.5747 C   0  0  0  0  0  0  0  0  0  0  0  0
  -10.9133    1.2350   25.8097 C   0  0  0  0  0  0  0  0  0  0  0  0
  -12.1360    3.7338   23.2728 C   0  0  1  0  0  0  0  0  0  0  0  0
  -13.2435    4.1533   23.3357 C   0  0  0  0  0  0  0  0  0  0  0  0
  -11.3401    3.9241   22.0754 C   0  0  0  0  0  0  0  0  0  0  0  0
  -10.1179    4.5032   22.1560 C   0  0  0  0  0  0  0  0  0  0  0  0
  2  7  1  0
  9 13  1  0
 13 14  1  1
 13 15  1  0
 15 16  1  0
  7  8  2  0
  8  9  1  0
  9 10  2  0
 10 12  1  0
 12 11  2  0
 11  7  1  0
  1  2  2  0
  2  3  1  0
  3  6  2  0
  6  5  1  0
  5  4  2  0
  4  1  1  0
M  END
$$$$
