No_4093-complexes_sdf/6BKW-FPZ/2024-09-17-14-21-01/
     RDKit          3D

 17 18  0  0  0  0  0  0  0  0999 V2000
   -7.7129    4.2099   27.0854 C   0  0  0  0  0  0  0  0  0  0  0  0
   -8.2112    3.0637   26.9225 C   0  0  0  0  0  0  0  0  0  0  0  0
   -8.5108    5.3904   26.9436 C   0  0  0  0  0  0  0  0  0  0  0  0
   -7.9752    6.6981   27.2112 C   0  0  0  0  0  0  0  0  0  0  0  0
   -9.5213    2.8208   26.4688 C   0  0  0  0  0  0  0  0  0  0  0  0
  -10.2979    3.9327   26.2378 C   0  0  0  0  0  0  0  0  0  0  0  0
   -9.7894    5.2123   26.4395 C   0  0  0  0  0  0  0  0  0  0  0  0
   -7.1925    1.6286   27.2384 Cl  0  0  0  0  0  0  0  0  0  0  0  0
   -6.9338    6.8511   27.8813 N   0  0  0  0  0  0  0  0  0  0  0  0
   -8.7002    7.8927   26.8386 C   0  0  0  0  0  0  0  0  0  0  0  0
   -9.9584    1.4298   26.2385 C   0  0  0  0  0  0  0  0  0  0  0  0
  -11.0669    1.2097   25.4932 C   0  0  0  0  0  0  0  0  0  0  0  0
  -11.7103    2.3010   24.9185 C   0  0  0  0  0  0  0  0  0  0  0  0
  -11.4831    3.7257   25.4207 C   0  0  0  0  0  0  0  0  0  0  0  0
  -12.9305    2.1704   24.3635 C   0  0  0  0  0  0  0  0  0  0  0  0
  -13.9951    1.7876   24.9325 C   0  0  0  0  0  0  0  0  0  0  0  0
  -15.2530    1.6007   24.2544 C   0  0  0  0  0  0  0  0  0  0  0  0
  3  4  1  0
  2  8  1  0
  4  9  2  0
  4 10  1  0
 13 15  1  0
 15 16  2  3
 16 17  1  0
  6 14  2  0
 14 13  1  0
 13 12  2  0
 12 11  1  0
 11  5  2  0
  1  2  2  0
  2  5  1  0
  5  6  1  0
  6  7  1  0
  7  3  2  0
  3  1  1  0
M  END
$$$$
