No_4821-complexes_sdf/6BKW-FPZ/2024-09-17-14-21-01/
     RDKit          3D

 25 27  0  0  0  0  0  0  0  0999 V2000
   -7.2496    3.8871   27.4508 C   0  0  0  0  0  0  0  0  0  0  0  0
   -7.6161    2.7143   27.1523 C   0  0  0  0  0  0  0  0  0  0  0  0
   -8.8302    2.4659   26.5056 C   0  0  0  0  0  0  0  0  0  0  0  0
   -8.1584    5.0090   27.3234 C   0  0  0  0  0  0  0  0  0  0  0  0
   -9.3788    4.7965   26.7695 C   0  0  0  0  0  0  0  0  0  0  0  0
   -9.7028    3.5649   26.3276 C   0  0  0  0  0  0  0  0  0  0  0  0
   -6.7182    1.5519   27.3631 C   0  0  0  0  0  0  0  0  0  0  0  0
   -5.4694    1.7365   28.0694 C   0  0  0  0  0  0  0  0  0  0  0  0
   -4.6100    0.5332   28.1857 C   0  0  0  0  0  0  0  0  0  0  0  0
   -5.0703   -0.6731   27.8469 C   0  0  0  0  0  0  0  0  0  0  0  0
   -7.0114    0.2199   27.0872 C   0  0  0  0  0  0  0  0  0  0  0  0
   -6.2968   -0.8103   27.3219 C   0  0  0  0  0  0  0  0  0  0  0  0
   -7.6955    6.3652   27.7809 C   0  0  0  0  0  0  0  0  0  0  0  0
   -3.2757    0.8191   28.8441 C   0  0  0  0  0  0  0  0  0  0  0  0
   -3.0346   -0.2601   29.7625 C   0  0  0  0  0  0  0  0  0  0  0  0
   -3.4912   -0.1622   31.0785 C   0  0  0  0  0  0  0  0  0  0  0  0
   -3.1038   -1.1054   32.0535 C   0  0  0  0  0  0  0  0  0  0  0  0
   -2.2044   -2.1051   31.7050 C   0  0  0  0  0  0  0  0  0  0  0  0
   -1.7133   -2.1841   30.4448 C   0  0  0  0  0  0  0  0  0  0  0  0
   -2.0663   -1.2652   29.4510 C   0  0  0  0  0  0  0  0  0  0  0  0
  -10.9949    3.3514   25.6292 C   0  0  0  0  0  0  0  0  0  0  0  0
  -12.1324    3.1755   26.3036 C   0  0  0  0  0  0  0  0  0  0  0  0
  -12.1977    3.1758   27.5736 C   0  0  0  0  0  0  0  0  0  0  0  0
  -13.4782    3.0498   28.3574 C   0  0  0  0  0  0  0  0  0  0  0  0
  -14.6142    3.0507   27.6182 C   0  0  0  0  0  0  0  0  0  0  0  0
  2  7  1  0
  4 13  1  0
  9 14  1  0
 14 15  1  0
  6 21  1  0
 21 22  1  0
 22 23  2  3
 23 24  1  0
 24 25  2  0
  7  8  2  0
  8  9  1  0
  9 10  2  0
 10 12  1  0
 12 11  2  0
 11  7  1  0
  1  2  2  0
  2  3  1  0
  3  6  2  0
  6  5  1  0
  5  4  2  0
  4  1  1  0
 15 16  2  0
 16 17  1  0
 17 18  2  0
 18 19  1  0
 19 20  2  0
 20 15  1  0
M  END
$$$$
