No_4416-complexes_sdf/6BKW-FPZ/2024-09-17-14-21-01/
     RDKit          3D

 23 25  0  0  0  0  0  0  0  0999 V2000
   -7.7129    4.2099   27.0854 C   0  0  0  0  0  0  0  0  0  0  0  0
   -8.2112    3.0637   26.9225 C   0  0  0  0  0  0  0  0  0  0  0  0
   -9.5629    2.7997   27.0678 C   0  0  0  0  0  0  0  0  0  0  0  0
   -8.5911    5.3704   27.2036 C   0  0  0  0  0  0  0  0  0  0  0  0
   -9.9544    5.1489   27.1401 C   0  0  0  0  0  0  0  0  0  0  0  0
  -10.4577    3.9280   27.0818 C   0  0  0  0  0  0  0  0  0  0  0  0
   -8.1789    6.7595   27.3928 C   0  0  0  0  0  0  0  0  0  0  0  0
  -10.0582    1.3927   26.9272 C   0  0  0  0  0  0  0  0  0  0  0  0
  -11.1732    1.0516   27.4948 C   0  0  0  0  0  0  0  0  0  0  0  0
  -11.6010   -0.3378   27.5458 C   0  0  0  0  0  0  0  0  0  0  0  0
  -10.7254   -1.2634   27.0376 C   0  0  0  0  0  0  0  0  0  0  0  0
   -9.2903    0.2092   26.6128 C   0  0  0  0  0  0  0  0  0  0  0  0
   -9.5809   -0.9918   26.6112 C   0  0  0  0  0  0  0  0  0  0  0  0
   -6.8886    7.3636   26.5625 P   0  0  0  0  0  0  0  0  0  0  0  0
   -5.8215    6.9911   26.7743 O   0  0  0  0  0  0  0  0  0  0  0  0
   -7.1500    8.9066   27.3750 O   0  0  0  0  0  0  0  0  0  0  0  0
   -7.4746    7.7373   25.3034 O   0  0  0  0  0  0  0  0  0  0  0  0
  -11.2719   -2.6351   27.1296 N   0  0  0  0  0  0  0  0  0  0  0  0
  -10.5019   -3.5761   27.1791 C   0  0  0  0  0  0  0  0  0  0  0  0
  -10.8399   -4.7819   27.3180 C   0  0  0  0  0  0  0  0  0  0  0  0
  -12.6360   -2.8622   27.0540 C   0  0  0  0  0  0  0  0  0  0  0  0
  -13.0900   -4.1438   27.1735 C   0  0  0  0  0  0  0  0  0  0  0  0
  -12.1792   -5.1379   27.2928 C   0  0  0  0  0  0  0  0  0  0  0  0
  4  7  1  0
  3  8  1  0
  7 14  1  0
 14 15  1  0
 14 16  1  0
 14 17  1  0
 11 18  1  0
 18 19  1  0
 18 21  1  0
 20 23  1  0
 22 23  1  0
 19 20  1  0
 22 21  1  0
  1  2  2  0
  2  3  1  0
  3  6  2  0
  6  5  1  0
  5  4  2  0
  4  1  1  0
  8  9  2  0
  9 10  1  0
 10 11  2  0
 11 13  1  0
 13 12  2  0
 12  8  1  0
M  END
$$$$
