No_4154-complexes_sdf/6BKW-FPZ/2024-09-17-14-21-01/
     RDKit          3D

 15 16  0  0  0  0  0  0  0  0999 V2000
   -7.9040    3.9820   27.1177 C   0  0  0  0  0  0  0  0  0  0  0  0
   -8.2057    2.8231   26.8733 C   0  0  0  0  0  0  0  0  0  0  0  0
   -7.4766    1.7477   27.4593 C   0  0  0  0  0  0  0  0  0  0  0  0
   -6.7221    4.3631   27.8544 C   0  0  0  0  0  0  0  0  0  0  0  0
   -6.1698    2.0708   27.9540 C   0  0  0  0  0  0  0  0  0  0  0  0
   -5.8496    3.3886   28.1848 C   0  0  0  0  0  0  0  0  0  0  0  0
   -8.7592    5.1606   26.7369 C   0  0  1  0  0  0  0  0  0  0  0  0
   -8.7747    6.2892   27.4099 N   0  0  0  0  0  0  0  0  0  0  0  0
   -9.5345    5.0526   25.5293 C   0  0  0  0  0  0  0  0  0  0  0  0
   -5.2774    0.9678   28.3524 C   0  0  0  0  0  0  0  0  0  0  0  0
   -4.5470    0.3069   27.5060 C   0  0  0  0  0  0  0  0  0  0  0  0
   -4.3132   -0.9339   27.6637 C   0  0  0  0  0  0  0  0  0  0  0  0
   -4.2968   -1.5193   28.7800 C   0  0  0  0  0  0  0  0  0  0  0  0
   -4.9308   -0.8372   29.9046 C   0  0  0  0  0  0  0  0  0  0  0  0
   -5.4670    0.3895   29.6230 C   0  0  0  0  0  0  0  0  0  0  0  0
  1  7  1  0
  7  8  1  0
  7  9  1  6
  5 10  1  0
  1  2  2  0
  2  3  1  0
  3  5  2  0
  5  6  1  0
  6  4  2  0
  4  1  1  0
 10 11  2  0
 11 12  1  0
 12 13  2  0
 13 14  1  0
 14 15  2  0
 15 10  1  0
M  END
$$$$
