No_4133-complexes_sdf/6BKW-FPZ/2024-09-17-14-21-01/
     RDKit          3D

 27 31  0  0  0  0  0  0  0  0999 V2000
   -7.2496    3.8871   27.4508 C   0  0  0  0  0  0  0  0  0  0  0  0
   -8.5096    4.0291   27.2770 C   0  0  0  0  0  0  0  0  0  0  0  0
   -9.3451    2.8786   26.9046 C   0  0  0  0  0  0  0  0  0  0  0  0
   -8.7138    1.7135   26.7541 C   0  0  0  0  0  0  0  0  0  0  0  0
   -6.5992    2.6226   27.4994 C   0  0  0  0  0  0  0  0  0  0  0  0
   -7.3741    1.5404   27.1241 C   0  0  0  0  0  0  0  0  0  0  0  0
   -9.1432    5.3791   27.3104 C   0  0  0  0  0  0  0  0  0  0  0  0
   -8.7028    6.3365   26.7039 C   0  0  0  0  0  0  0  0  0  0  0  0
   -8.4104    7.6463   27.3556 C   0  0  0  0  0  0  0  0  0  0  0  0
   -6.5174    0.3142   27.0518 C   0  0  0  0  0  0  0  0  0  0  0  0
   -6.8351   -0.6229   26.1825 C   0  0  0  0  0  0  0  0  0  0  0  0
   -5.5061    0.1267   28.0484 C   0  0  0  0  0  0  0  0  0  0  0  0
   -4.8680   -1.0913   28.2192 C   0  0  0  0  0  0  0  0  0  0  0  0
   -5.0952   -2.0244   27.2530 C   0  0  0  0  0  0  0  0  0  0  0  0
   -7.8465   -0.4470   25.2389 C   0  0  1  0  0  0  0  0  0  0  0  0
   -6.0820   -1.8270   26.2575 C   0  0  0  0  0  0  0  0  0  0  0  0
   -8.1700   -1.2888   24.3141 C   0  0  0  0  0  0  0  0  0  0  0  0
   -9.1832   -1.0925   23.3532 C   0  0  0  0  0  0  0  0  0  0  0  0
   -9.8539    0.1140   23.3882 C   0  0  0  0  0  0  0  0  0  0  0  0
   -9.5200    1.1073   24.2550 C   0  0  0  0  0  0  0  0  0  0  0  0
   -9.0064    0.6735   25.7982 C   0  0  2  0  0  0  0  0  0  0  0  0
  -10.2793   -0.0847   26.4001 C   0  0  0  0  0  0  0  0  0  0  0  0
  -11.3841    0.5213   26.4167 C   0  0  0  0  0  0  0  0  0  0  0  0
  -12.2234    0.3129   26.9366 C   0  0  0  0  0  0  0  0  0  0  0  0
  -12.8085   -0.8527   26.9172 C   0  0  0  0  0  0  0  0  0  0  0  0
  -11.8502   -1.9441   26.6341 C   0  0  0  0  0  0  0  0  0  0  0  0
  -10.4282   -1.5283   26.3991 C   0  0  0  0  0  0  0  0  0  0  0  0
  2  7  1  0
  7  8  1  0
  8  9  2  0
  6 10  1  0
 11 15  1  0
 17 18  1  0
 19 20  1  0
  4 21  1  0
 15 21  1  0
 20 21  1  0
 21 22  1  1
 15 17  1  1
 18 19  1  0
  1  2  2  0
  2  3  1  0
  3  4  2  0
  4  6  1  0
  6  5  2  0
  5  1  1  0
 22 23  2  0
 23 24  1  0
 24 25  2  0
 25 26  1  0
 26 27  2  0
 27 22  1  0
 10 12  2  0
 12 13  1  0
 13 14  2  0
 14 16  1  0
 16 11  2  0
 11 10  1  0
M  END
$$$$
