No_4141-complexes_sdf/6BKW-FPZ/2024-09-17-14-21-01/
     RDKit          3D

 31 34  0  0  0  0  0  0  0  0999 V2000
   -7.7129    4.2099   27.0854 C   0  0  0  0  0  0  0  0  0  0  0  0
   -7.7814    5.1722   27.8972 C   0  0  0  0  0  0  0  0  0  0  0  0
   -8.8998    3.8713   26.3707 C   0  0  0  0  0  0  0  0  0  0  0  0
   -9.9938    4.6774   26.5446 C   0  0  0  0  0  0  0  0  0  0  0  0
   -6.5693    5.6171   28.6342 C   0  0  0  0  0  0  0  0  0  0  0  0
   -9.9240    5.8213   27.1985 C   0  0  0  0  0  0  0  0  0  0  0  0
   -8.8382    6.1599   27.9605 C   0  0  0  0  0  0  0  0  0  0  0  0
   -8.9574    2.6668   25.5258 C   0  0  0  0  0  0  0  0  0  0  0  0
   -9.8163    1.7148   25.9621 C   0  0  0  0  0  0  0  0  0  0  0  0
  -10.7025    1.6390   26.6426 C   0  0  0  0  0  0  0  0  0  0  0  0
  -10.9062    1.1573   27.6409 C   0  0  0  0  0  0  0  0  0  0  0  0
  -11.9056    1.3407   28.7267 C   0  0  0  0  0  0  0  0  0  0  0  0
  -12.8921    2.3015   28.4268 C   0  0  0  0  0  0  0  0  0  0  0  0
  -12.8935    2.9348   27.2534 C   0  0  0  0  0  0  0  0  0  0  0  0
  -11.8068    2.7575   26.3849 C   0  0  0  0  0  0  0  0  0  0  0  0
   -9.5022    0.3211   25.2760 C   0  0  0  0  0  0  0  0  0  0  0  0
   -8.7108    0.3666   24.1588 C   0  0  0  0  0  0  0  0  0  0  0  0
  -10.0413   -0.8016   25.7168 C   0  0  0  0  0  0  0  0  0  0  0  0
   -9.8663   -1.9369   25.0035 C   0  0  0  0  0  0  0  0  0  0  0  0
   -8.4225   -0.7584   23.4479 C   0  0  0  0  0  0  0  0  0  0  0  0
   -7.5847   -0.7219   22.2375 C   0  0  0  0  0  0  0  0  0  0  0  0
   -9.0275   -1.9256   23.8872 C   0  0  0  0  0  0  0  0  0  0  0  0
   -6.5586   -1.7186   22.2186 C   0  0  2  0  0  0  0  0  0  0  0  0
   -6.3973   -2.4191   21.0295 C   0  0  0  0  0  0  0  0  0  0  0  0
   -5.1726   -3.0190   20.8548 C   0  0  0  0  0  0  0  0  0  0  0  0
   -4.9165   -4.0670   21.7636 C   0  0  2  0  0  0  0  0  0  0  0  0
   -5.0716   -3.5417   23.1948 C   0  0  0  0  0  0  0  0  0  0  0  0
   -6.2875   -2.6446   23.4435 C   0  0  0  0  0  0  0  0  0  0  0  0
   -3.6485   -4.6717   21.6716 N   0  0  0  0  0  0  0  0  0  0  0  0
   -3.0821   -4.7460   20.5589 C   0  0  0  0  0  0  0  0  0  0  0  0
   -2.9475   -5.2756   22.7866 C   0  0  0  0  0  0  0  0  0  0  0  0
  2  5  1  0
  3  8  1  0
  8  9  1  0
  9 10  1  0
  9 16  1  0
 20 21  1  0
 23 21  1  1
 23 24  1  0
 24 25  1  0
 25 26  1  0
 26 27  1  0
 23 28  1  0
 27 28  1  0
 26 29  1  1
 29 30  1  0
 29 31  1  0
 16 17  2  0
 17 20  1  0
 20 22  2  0
 22 19  1  0
 19 18  2  0
 18 16  1  0
 10 11  2  0
 11 12  1  0
 12 13  2  0
 13 14  1  0
 14 15  2  0
 15 10  1  0
  1  2  2  0
  2  7  1  0
  7  6  2  0
  6  4  1  0
  4  3  2  0
  3  1  1  0
M  END
$$$$
