No_4266-complexes_sdf/6BKW-FPZ/2024-09-17-14-21-01/
     RDKit          3D

 18 19  0  0  0  0  0  0  0  0999 V2000
   -7.2496    3.8871   27.4508 C   0  0  0  0  0  0  0  0  0  0  0  0
   -7.6161    2.7143   27.1523 C   0  0  0  0  0  0  0  0  0  0  0  0
   -8.6212    2.2239   26.4074 C   0  0  0  0  0  0  0  0  0  0  0  0
   -8.2539    4.9237   27.1711 C   0  0  0  0  0  0  0  0  0  0  0  0
   -9.3729    4.5807   26.4433 C   0  0  0  0  0  0  0  0  0  0  0  0
   -8.9160    0.9341   26.0822 C   0  0  0  0  0  0  0  0  0  0  0  0
   -9.6005    3.2666   26.0852 C   0  0  0  0  0  0  0  0  0  0  0  0
   -7.9109    6.3338   27.5235 C   0  0  0  0  0  0  0  0  0  0  0  0
   -8.2231    0.1616   26.0857 O   0  0  0  0  0  0  0  0  0  0  0  0
  -10.0885    0.7534   25.3305 O   0  0  0  0  0  0  0  0  0  0  0  0
   -8.8295    7.2869   27.1196 N   0  0  0  0  0  0  0  0  0  0  0  0
   -6.8632    6.5931   28.1120 O   0  0  0  0  0  0  0  0  0  0  0  0
  -10.4096   -0.4599   24.9181 C   0  0  0  0  0  0  0  0  0  0  0  0
  -11.4865   -0.5743   23.9545 C   0  0  0  0  0  0  0  0  0  0  0  0
  -11.7347   -1.6289   23.3972 C   0  0  0  0  0  0  0  0  0  0  0  0
  -11.0619   -2.8659   23.7657 C   0  0  0  0  0  0  0  0  0  0  0  0
  -10.0422   -2.7882   24.6499 C   0  0  0  0  0  0  0  0  0  0  0  0
   -9.6527   -1.5817   25.2069 C   0  0  0  0  0  0  0  0  0  0  0  0
  3  6  1  0
  4  8  1  0
  6  9  2  0
  6 10  1  0
  8 11  1  0
  8 12  2  0
 10 13  1  0
 13 14  2  0
 14 15  1  0
 15 16  2  0
 16 17  1  0
 17 18  2  0
 18 13  1  0
  1  2  2  0
  2  3  1  0
  3  7  2  0
  7  5  1  0
  5  4  2  0
  4  1  1  0
M  END
$$$$
