No_4754-complexes_sdf/6BKW-FPZ/2024-09-17-14-21-01/
     RDKit          3D

 25 27  0  0  0  0  0  0  0  0999 V2000
   -7.7129    4.2099   27.0854 C   0  0  0  0  0  0  0  0  0  0  0  0
   -8.9133    4.4736   27.0998 C   0  0  0  0  0  0  0  0  0  0  0  0
   -9.4643    5.5426   27.7628 C   0  0  0  0  0  0  0  0  0  0  0  0
   -6.8373    4.9942   27.9785 C   0  0  0  0  0  0  0  0  0  0  0  0
   -7.3932    6.0303   28.6784 C   0  0  0  0  0  0  0  0  0  0  0  0
   -8.7122    6.3429   28.5485 C   0  0  0  0  0  0  0  0  0  0  0  0
   -9.7990    3.6123   26.2052 C   0  0  0  0  0  0  0  0  0  0  0  0
   -9.3449    2.6421   25.5836 C   0  0  0  0  0  0  0  0  0  0  0  0
  -10.0238    1.9096   24.5755 C   0  0  0  0  0  0  0  0  0  0  0  0
  -11.3124    2.4108   24.2424 C   0  0  0  0  0  0  0  0  0  0  0  0
  -11.8092    3.5364   24.8683 C   0  0  0  0  0  0  0  0  0  0  0  0
  -11.0684    4.2322   25.8032 C   0  0  0  0  0  0  0  0  0  0  0  0
   -9.5251    0.7031   23.9326 C   0  0  0  0  0  0  0  0  0  0  0  0
   -8.5096    0.0486   24.4066 C   0  0  0  0  0  0  0  0  0  0  0  0
  -10.0496    0.3569   22.6580 C   0  0  0  0  0  0  0  0  0  0  0  0
   -8.0400    0.1778   25.5917 N   0  0  0  0  0  0  0  0  0  0  0  0
   -7.8824   -1.0248   23.6228 C   0  0  0  0  0  0  0  0  0  0  0  0
   -8.3227   -1.3701   22.3763 C   0  0  0  0  0  0  0  0  0  0  0  0
   -9.4042   -0.5958   21.8500 C   0  0  0  0  0  0  0  0  0  0  0  0
   -8.4568   -0.4784   26.7843 C   0  0  0  0  0  0  0  0  0  0  0  0
   -7.6588   -1.3312   27.2916 C   0  0  0  0  0  0  0  0  0  0  0  0
   -9.7511   -0.1608   27.2771 C   0  0  0  0  0  0  0  0  0  0  0  0
   -6.2432   -1.4968   27.0491 C   0  0  0  0  0  0  0  0  0  0  0  0
   -5.4599   -2.4431   27.6439 C   0  0  0  0  0  0  0  0  0  0  0  0
   -6.0585   -3.2812   28.5676 C   0  0  0  0  0  0  0  0  0  0  0  0
  2  7  1  0
  9 13  1  0
 16 20  1  0
 20 21  2  3
 20 22  1  0
 21 23  1  0
 23 24  2  3
 24 25  1  0
 16 14  1  0
  1  2  2  0
  2  3  1  0
  3  6  2  0
  6  5  1  0
  5  4  2  0
  4  1  1  0
  7  8  2  0
  8  9  1  0
  9 10  2  0
 10 11  1  0
 11 12  2  0
 12  7  1  0
 13 14  2  0
 14 17  1  0
 17 18  2  0
 18 19  1  0
 19 15  2  0
 15 13  1  0
M  END
$$$$
