No_4687-complexes_sdf/6BKW-FPZ/2024-09-17-14-21-01/
     RDKit          3D

 35 39  0  0  0  0  0  0  0  0999 V2000
   -7.9040    3.9820   27.1177 C   0  0  0  0  0  0  0  0  0  0  0  0
   -9.0711    4.3164   27.0630 C   0  0  0  0  0  0  0  0  0  0  0  0
   -9.8698    3.9665   25.9495 C   0  0  0  0  0  0  0  0  0  0  0  0
   -7.0332    4.5030   28.2025 C   0  0  0  0  0  0  0  0  0  0  0  0
  -10.9909    4.7237   25.5958 C   0  0  0  0  0  0  0  0  0  0  0  0
   -7.4989    5.5573   28.9524 C   0  0  0  0  0  0  0  0  0  0  0  0
  -11.7350    4.2316   24.5284 C   0  0  0  0  0  0  0  0  0  0  0  0
  -11.2912    3.1970   23.7185 C   0  0  0  0  0  0  0  0  0  0  0  0
  -10.1586    2.5464   24.0389 C   0  0  0  0  0  0  0  0  0  0  0  0
   -9.6825    1.4738   23.3181 C   0  0  0  0  0  0  0  0  0  0  0  0
   -9.3979    2.9041   25.1375 C   0  0  0  0  0  0  0  0  0  0  0  0
   -9.4945    5.4298   27.8963 C   0  0  0  0  0  0  0  0  0  0  0  0
   -8.7023    6.0115   28.8200 C   0  0  0  0  0  0  0  0  0  0  0  0
   -9.8976    1.3496   21.9848 N   0  0  0  0  0  0  0  0  0  0  0  0
   -8.8249    0.4053   23.8327 C   0  0  0  0  0  0  0  0  0  0  0  0
   -8.3325   -0.5800   23.0248 C   0  0  0  0  0  0  0  0  0  0  0  0
   -9.4746    0.3933   21.1806 C   0  0  0  0  0  0  0  0  0  0  0  0
   -8.7000   -0.5854   21.6911 C   0  0  0  0  0  0  0  0  0  0  0  0
   -8.2496   -1.6742   20.7873 C   0  0  0  0  0  0  0  0  0  0  0  0
   -8.7830   -1.9985   19.7027 C   0  0  0  0  0  0  0  0  0  0  0  0
   -8.2369   -3.0651   18.8492 C   0  0  0  0  0  0  0  0  0  0  0  0
   -7.0443   -3.6526   19.2877 C   0  0  0  0  0  0  0  0  0  0  0  0
   -6.9536   -2.4291   21.0524 C   0  0  0  0  0  0  0  0  0  0  0  0
   -6.4199   -3.2982   20.3730 C   0  0  0  0  0  0  0  0  0  0  0  0
   -5.7673    4.0309   28.2515 F   0  0  0  0  0  0  0  0  0  0  0  0
   -8.9613   -3.4022   17.6385 C   0  0  0  0  0  0  0  0  0  0  0  0
   -8.6401   -3.1678   16.5835 O   0  0  0  0  0  0  0  0  0  0  0  0
  -10.1885   -3.9935   17.8144 O   0  0  0  0  0  0  0  0  0  0  0  0
  -10.7541   -4.4987   18.5332 C   0  0  0  0  0  0  0  0  0  0  0  0
  -10.5985   -5.6830   18.8380 C   0  0  0  0  0  0  0  0  0  0  0  0
   -9.8446   -6.5332   18.0569 C   0  0  0  0  0  0  0  0  0  0  0  0
   -9.6569   -7.9443   18.4397 C   0  0  0  0  0  0  0  0  0  0  0  0
  -10.2723   -8.3861   19.5898 C   0  0  0  0  0  0  0  0  0  0  0  0
  -11.0245   -7.5897   20.3856 C   0  0  0  0  0  0  0  0  0  0  0  0
  -11.1923   -6.2685   20.1217 C   0  0  0  0  0  0  0  0  0  0  0  0
  9 10  1  0
 18 19  1  0
  4 25  1  0
 21 26  1  0
 26 27  2  0
 26 28  1  0
 28 29  1  0
  2  3  1  0
 29 30  1  0
 10 14  2  0
 14 17  1  0
 17 18  2  0
 18 16  1  0
 16 15  2  0
 15 10  1  0
 30 31  2  0
 31 32  1  0
 32 33  2  0
 33 34  1  0
 34 35  2  0
 35 30  1  0
  1  2  2  0
  2 12  1  0
 12 13  2  0
 13  6  1  0
  6  4  2  0
  4  1  1  0
 19 20  2  0
 20 21  1  0
 21 22  2  0
 22 24  1  0
 24 23  2  0
 23 19  1  0
  3  5  2  0
  5  7  1  0
  7  8  2  0
  8  9  1  0
  9 11  2  0
 11  3  1  0
M  END
$$$$
