No_4284-complexes_sdf/6BKW-FPZ/2024-09-17-14-21-01/
     RDKit          3D

 40 43  0  0  0  0  0  0  0  0999 V2000
   -7.9040    3.9820   27.1177 C   0  0  0  0  0  0  0  0  0  0  0  0
   -7.8663    4.8694   27.9238 C   0  0  0  0  0  0  0  0  0  0  0  0
   -9.0491    3.8523   26.2542 C   0  0  0  0  0  0  0  0  0  0  0  0
   -8.7661    5.9491   27.9690 C   0  0  0  0  0  0  0  0  0  0  0  0
   -9.9295    4.8502   26.2323 C   0  0  0  0  0  0  0  0  0  0  0  0
   -9.8077    5.9288   27.0933 C   0  0  0  0  0  0  0  0  0  0  0  0
   -9.0726    2.7074   25.3087 C   0  0  0  0  0  0  0  0  0  0  0  0
   -9.9759    2.7847   24.3262 N   0  0  0  0  0  0  0  0  0  0  0  0
  -10.0451    1.8088   23.3737 C   0  0  0  0  0  0  0  0  0  0  0  0
  -10.7648    2.0425   22.1699 C   0  0  0  0  0  0  0  0  0  0  0  0
   -9.2756    0.5990   23.4176 C   0  0  0  0  0  0  0  0  0  0  0  0
   -9.3024   -0.3028   22.3576 C   0  0  0  0  0  0  0  0  0  0  0  0
  -10.7737    1.1319   21.1161 C   0  0  0  0  0  0  0  0  0  0  0  0
   -8.5585   -1.5341   22.4700 C   0  0  0  0  0  0  0  0  0  0  0  0
  -10.0274   -0.0257   21.2045 C   0  0  0  0  0  0  0  0  0  0  0  0
   -8.2217    1.8093   25.4813 O   0  0  0  0  0  0  0  0  0  0  0  0
   -7.9163   -1.5970   23.4897 Br  0  0  0  0  0  0  0  0  0  0  0  0
   -8.6948   -2.3268   21.4246 F   0  0  0  0  0  0  0  0  0  0  0  0
  -11.6359    1.5009   20.0539 C   0  0  0  0  0  0  0  0  0  0  0  0
  -11.4728    2.3864   19.2716 O   0  0  0  0  0  0  0  0  0  0  0  0
  -12.7022    0.7457   19.8609 O   0  0  0  0  0  0  0  0  0  0  0  0
   -6.9983    3.0035   27.1797 F   0  0  0  0  0  0  0  0  0  0  0  0
  -13.4992    0.7471   19.0278 C   0  0  2  0  0  0  0  0  0  0  0  0
  -14.5983    1.4960   19.1224 C   0  0  0  0  0  0  0  0  0  0  0  0
  -15.0289    1.7796   20.3860 C   0  0  0  0  0  0  0  0  0  0  0  0
  -15.9689    2.8215   20.5782 C   0  0  0  0  0  0  0  0  0  0  0  0
  -16.6123    3.3696   19.4298 C   0  0  0  0  0  0  0  0  0  0  0  0
  -16.1738    3.0665   18.1614 C   0  0  0  0  0  0  0  0  0  0  0  0
  -15.1068    2.1662   17.9960 C   0  0  0  0  0  0  0  0  0  0  0  0
  -13.9631   -0.7281   18.5011 C   0  0  1  0  0  0  0  0  0  0  0  0
  -14.7659   -1.6117   19.4935 Cl  0  0  0  0  0  0  0  0  0  0  0  0
  -14.3713   -0.7920   17.1130 C   0  0  1  0  0  0  0  0  0  0  0  0
  -13.2802   -0.7355   16.2312 C   0  0  0  0  0  0  0  0  0  0  0  0
  -13.5902   -0.7167   14.8620 C   0  0  0  0  0  0  0  0  0  0  0  0
  -12.5531   -0.6271   13.9205 C   0  0  0  0  0  0  0  0  0  0  0  0
  -11.2028   -0.5949   14.3746 C   0  0  0  0  0  0  0  0  0  0  0  0
  -10.9247   -0.5906   15.7496 C   0  0  0  0  0  0  0  0  0  0  0  0
  -11.9248   -0.6237   16.6178 C   0  0  0  0  0  0  0  0  0  0  0  0
  -15.6267   -1.0834   16.7515 C   0  0  0  0  0  0  0  0  0  0  0  0
  -16.1592   -0.7348   15.6844 C   0  0  0  0  0  0  0  0  0  0  0  0
  3  7  1  0
  7  8  1  0
  8  9  1  0
 12 14  1  0
  7 16  2  0
 14 17  1  0
 14 18  1  0
 13 19  1  0
 19 20  2  0
 19 21  1  0
  1 22  1  0
 23 21  1  1
 23 24  1  0
 23 30  1  0
 30 31  1  1
 30 32  1  0
 32 33  1  0
 32 39  1  1
 39 40  2  0
 24 25  2  0
 25 26  1  0
 26 27  2  0
 27 28  1  0
 28 29  2  0
 29 24  1  0
  1  2  2  0
  2  4  1  0
  4  6  2  0
  6  5  1  0
  5  3  2  0
  3  1  1  0
 33 34  2  0
 34 35  1  0
 35 36  2  0
 36 37  1  0
 37 38  2  0
 38 33  1  0
  9 10  2  0
 10 13  1  0
 13 15  2  0
 15 12  1  0
 12 11  2  0
 11  9  1  0
M  END
$$$$
