No_406-complexes_sdf/6BKW-FPZ/2024-09-17-14-21-01/
     RDKit          3D

 27 31  0  0  0  0  0  0  0  0999 V2000
   -7.7129    4.2099   27.0854 C   0  0  0  0  0  0  0  0  0  0  0  0
   -8.9133    4.4736   27.0998 C   0  0  0  0  0  0  0  0  0  0  0  0
   -9.7135    3.9633   26.0300 C   0  0  0  0  0  0  0  0  0  0  0  0
   -6.8655    4.8824   28.1822 C   0  0  0  0  0  0  0  0  0  0  0  0
   -9.2221    2.8459   25.3619 C   0  0  0  0  0  0  0  0  0  0  0  0
  -10.0341    2.3269   24.3143 C   0  0  0  0  0  0  0  0  0  0  0  0
   -9.5680    1.1749   23.6219 C   0  0  0  0  0  0  0  0  0  0  0  0
  -10.1294    0.8039   22.4181 C   0  0  0  0  0  0  0  0  0  0  0  0
  -11.2406    1.5308   21.9231 C   0  0  0  0  0  0  0  0  0  0  0  0
  -11.6545    2.6585   22.5666 C   0  0  0  0  0  0  0  0  0  0  0  0
  -10.9872    3.1587   23.7210 C   0  0  0  0  0  0  0  0  0  0  0  0
   -7.5302    5.9332   28.8236 C   0  0  0  0  0  0  0  0  0  0  0  0
   -8.8189    6.3487   28.4487 C   0  0  0  0  0  0  0  0  0  0  0  0
   -9.4662    5.6217   27.4535 C   0  0  0  0  0  0  0  0  0  0  0  0
  -10.8914    4.5639   25.5254 C   0  0  0  0  0  0  0  0  0  0  0  0
  -11.4777    4.2603   24.3893 C   0  0  0  0  0  0  0  0  0  0  0  0
   -8.5074    0.4589   24.0597 O   0  0  0  0  0  0  0  0  0  0  0  0
   -8.5130   -0.0799   25.3244 C   0  0  0  0  0  0  0  0  0  0  0  0
   -8.3342   -1.4641   25.2748 C   0  0  0  0  0  0  0  0  0  0  0  0
   -8.3993   -2.0562   26.5229 C   0  0  0  0  0  0  0  0  0  0  0  0
   -8.4507   -1.3105   27.7600 C   0  0  0  0  0  0  0  0  0  0  0  0
   -8.5337    0.0892   27.6496 C   0  0  0  0  0  0  0  0  0  0  0  0
   -8.5101    0.6720   26.4896 C   0  0  0  0  0  0  0  0  0  0  0  0
   -9.3343    2.1009   26.4292 C   0  0  2  0  0  0  0  0  0  0  0  0
  -10.6359    2.1223   27.2120 C   0  0  0  0  0  0  0  0  0  0  0  0
  -10.5317    2.5176   28.5631 C   0  0  0  0  0  0  0  0  0  0  0  0
  -11.7174    1.4649   26.7050 C   0  0  0  0  0  0  0  0  0  0  0  0
  7 17  1  0
 17 18  1  0
  5 24  1  0
 23 24  1  0
 24 25  1  6
 25 26  2  0
 25 27  1  0
  2  3  1  0
 18 19  2  0
 19 20  1  0
 20 21  2  0
 21 22  1  0
 22 23  2  0
 23 18  1  0
  6  7  1  0
  7  8  2  0
  8  9  1  0
  9 10  2  0
 10 11  1  0
  1  2  2  0
  2 14  1  0
 14 13  2  0
 13 12  1  0
 12  4  2  0
  4  1  1  0
  3  5  1  0
  5  6  2  0
  6 11  1  0
 11 16  2  0
 16 15  1  0
 15  3  2  0
M  END
$$$$
