No_5061-complexes_sdf/6BKW-FPZ/2024-09-17-14-21-01/
     RDKit          3D

 14 15  0  0  0  0  0  0  0  0999 V2000
   -7.2496    3.8871   27.4508 C   0  0  0  0  0  0  0  0  0  0  0  0
   -7.6161    2.7143   27.1523 C   0  0  0  0  0  0  0  0  0  0  0  0
   -6.9719    1.5838   27.5324 C   0  0  0  0  0  0  0  0  0  0  0  0
   -7.4590    0.2827   27.2615 C   0  0  0  0  0  0  0  0  0  0  0  0
   -8.7521    2.5117   26.3068 C   0  0  0  0  0  0  0  0  0  0  0  0
   -9.5643    3.6334   25.9825 C   0  0  0  0  0  0  0  0  0  0  0  0
   -8.0314    5.1004   27.2112 C   0  0  0  0  0  0  0  0  0  0  0  0
   -9.1347    4.9790   26.3962 C   0  0  0  0  0  0  0  0  0  0  0  0
   -7.6137    6.2557   27.6641 F   0  0  0  0  0  0  0  0  0  0  0  0
   -8.6296    0.1531   26.5815 C   0  0  0  0  0  0  0  0  0  0  0  0
   -9.3062    1.2915   26.0354 C   0  0  0  0  0  0  0  0  0  0  0  0
  -10.6663    3.6061   25.0615 C   0  0  0  0  0  0  0  0  0  0  0  0
  -10.4803    3.3158   23.7990 C   0  0  0  0  0  0  0  0  0  0  0  0
  -11.5017    3.3424   22.8300 C   0  0  0  0  0  0  0  0  0  0  0  0
  7  9  1  0
  6 12  1  0
 12 13  2  3
 13 14  1  0
  2  3  1  0
  3  4  2  0
  4 10  1  0
 10 11  2  0
 11  5  1  0
  1  2  2  0
  2  5  1  0
  5  6  2  0
  6  8  1  0
  8  7  2  0
  7  1  1  0
M  END
$$$$
