No_5970-complexes_sdf/6BKW-FPZ/2024-09-17-14-21-01/
     RDKit          3D

 35 38  0  0  0  0  0  0  0  0999 V2000
   -7.2496    3.8871   27.4508 C   0  0  0  0  0  0  0  0  0  0  0  0
   -8.5096    4.0291   27.2770 C   0  0  2  0  0  0  0  0  0  0  0  0
   -9.2677    5.1714   27.5773 C   0  0  0  0  0  0  0  0  0  0  0  0
   -9.2765    2.8248   26.8371 C   0  0  0  0  0  0  0  0  0  0  0  0
  -10.4623    3.0171   26.3236 C   0  0  1  0  0  0  0  0  0  0  0  0
  -11.3015    3.9610   26.8543 C   0  0  2  0  0  0  0  0  0  0  0  0
  -12.7677    4.0804   26.5145 C   0  0  0  0  0  0  0  0  0  0  0  0
  -10.6267    5.4062   26.9144 C   0  0  0  0  0  0  0  0  0  0  0  0
   -6.5640    4.9481   27.9250 N   0  0  0  0  0  0  0  0  0  0  0  0
   -6.6032    2.8015   27.3546 O   0  0  0  0  0  0  0  0  0  0  0  0
  -13.5958    4.4196   27.5776 C   0  0  0  0  0  0  0  0  0  0  0  0
  -13.1567    4.4014   28.8866 C   0  0  0  0  0  0  0  0  0  0  0  0
  -14.9264    4.9403   27.3250 C   0  0  0  0  0  0  0  0  0  0  0  0
  -15.7782    4.4444   27.5378 C   0  0  0  0  0  0  0  0  0  0  0  0
  -14.2828    4.2246   29.9100 C   0  0  0  0  0  0  0  0  0  0  0  0
  -15.6530    4.2370   29.3158 C   0  0  0  0  0  0  0  0  0  0  0  0
  -10.8518    2.4398   25.0608 C   0  0  1  0  0  0  0  0  0  0  0  0
   -9.9654    2.4451   24.0143 C   0  0  0  0  0  0  0  0  0  0  0  0
  -11.3671    1.0479   25.3231 C   0  0  0  0  0  0  0  0  0  0  0  0
  -11.8665    0.6831   26.3271 C   0  0  0  0  0  0  0  0  0  0  0  0
  -12.4811   -0.5981   26.5848 C   0  0  0  0  0  0  0  0  0  0  0  0
  -12.4145   -1.4682   25.6001 C   0  0  0  0  0  0  0  0  0  0  0  0
  -11.8044   -1.1351   24.4045 C   0  0  0  0  0  0  0  0  0  0  0  0
  -11.3119    0.1245   24.2237 C   0  0  0  0  0  0  0  0  0  0  0  0
  -13.1925    3.8993   25.3921 O   0  0  0  0  0  0  0  0  0  0  0  0
  -14.0730    3.9066   31.2768 C   0  0  0  0  0  0  0  0  0  0  0  0
  -14.5539    4.7491   32.2087 C   0  0  0  0  0  0  0  0  0  0  0  0
  -14.2087    4.5304   33.5973 C   0  0  0  0  0  0  0  0  0  0  0  0
  -13.3425    3.4451   33.9017 C   0  0  0  0  0  0  0  0  0  0  0  0
  -12.9531    2.6219   32.8830 C   0  0  0  0  0  0  0  0  0  0  0  0
  -13.2276    2.8489   31.5898 C   0  0  0  0  0  0  0  0  0  0  0  0
  -13.0084    3.2183   35.3342 C   0  0  0  0  0  0  0  0  0  0  0  0
  -12.7303    1.9975   35.4818 F   0  0  0  0  0  0  0  0  0  0  0  0
  -14.0849    3.5470   36.1089 F   0  0  0  0  0  0  0  0  0  0  0  0
  -11.9900    4.0555   35.6588 F   0  0  0  0  0  0  0  0  0  0  0  0
  2  1  1  1
  2  3  1  0
  2  4  1  0
  5  4  1  6
  5  6  1  0
  6  7  1  6
  3  8  1  0
  6  8  1  0
  1  9  1  0
  1 10  2  0
  7 11  1  0
  5 17  1  0
 17 18  1  6
 17 19  1  0
  7 25  2  0
 15 26  1  0
 29 32  1  0
 32 33  1  0
 32 34  1  0
 32 35  1  0
 11 12  2  0
 12 15  1  0
 15 16  2  0
 16 14  1  0
 14 13  2  0
 13 11  1  0
 19 20  2  0
 20 21  1  0
 21 22  2  0
 22 23  1  0
 23 24  2  0
 24 19  1  0
 26 27  2  0
 27 28  1  0
 28 29  2  0
 29 30  1  0
 30 31  2  0
 31 26  1  0
M  END
$$$$
