No_5165-complexes_sdf/6BKW-FPZ/2024-09-17-14-21-01/
     RDKit          3D

 23 25  0  0  0  0  0  0  0  0999 V2000
   -7.7129    4.2099   27.0854 C   0  0  0  0  0  0  0  0  0  0  0  0
   -7.7814    5.1722   27.8972 C   0  0  0  0  0  0  0  0  0  0  0  0
   -8.8998    3.8713   26.3707 C   0  0  0  0  0  0  0  0  0  0  0  0
   -9.9938    4.6774   26.5446 C   0  0  0  0  0  0  0  0  0  0  0  0
   -8.7789    6.1536   27.9256 C   0  0  0  0  0  0  0  0  0  0  0  0
   -9.9428    5.8398   27.2296 C   0  0  0  0  0  0  0  0  0  0  0  0
   -8.9019    2.7727   25.6295 F   0  0  0  0  0  0  0  0  0  0  0  0
  -11.1651    4.3395   25.7063 C   0  0  0  0  0  0  0  0  0  0  0  0
  -10.9926    4.2326   24.3010 C   0  0  0  0  0  0  0  0  0  0  0  0
  -12.0367    3.9753   23.4533 C   0  0  0  0  0  0  0  0  0  0  0  0
  -11.7383    3.7731   22.0727 C   0  0  0  0  0  0  0  0  0  0  0  0
  -10.3789    3.8006   21.6249 C   0  0  0  0  0  0  0  0  0  0  0  0
   -9.3977    4.0034   22.5466 C   0  0  0  0  0  0  0  0  0  0  0  0
   -9.5851    4.2070   23.8589 C   0  0  0  0  0  0  0  0  0  0  0  0
  -12.3740    4.1105   26.3481 C   0  0  0  0  0  0  0  0  0  0  0  0
  -12.5538    3.7637   27.6517 C   0  0  0  0  0  0  0  0  0  0  0  0
  -13.7414    3.8161   28.2739 C   0  0  0  0  0  0  0  0  0  0  0  0
  -14.8841    3.9940   27.4815 C   0  0  0  0  0  0  0  0  0  0  0  0
  -13.5864    4.4038   25.6962 C   0  0  0  0  0  0  0  0  0  0  0  0
  -14.7710    4.3709   26.2609 C   0  0  0  0  0  0  0  0  0  0  0  0
   -6.6238    5.6008   28.6296 O   0  0  0  0  0  0  0  0  0  0  0  0
  -16.1168    4.0229   28.1280 F   0  0  0  0  0  0  0  0  0  0  0  0
  -12.7451    3.6476   21.2546 F   0  0  0  0  0  0  0  0  0  0  0  0
  3  7  1  0
  4  8  1  0
  8 15  1  0
  2 21  1  0
 18 22  1  0
 11 23  1  0
  8  9  1  0
  9 10  2  0
 10 11  1  0
 11 12  2  0
 12 13  1  0
 13 14  2  0
 14  9  1  0
  1  2  2  0
  2  5  1  0
  5  6  2  0
  6  4  1  0
  4  3  2  0
  3  1  1  0
 15 16  2  0
 16 17  1  0
 17 18  2  0
 18 20  1  0
 20 19  2  0
 19 15  1  0
M  END
$$$$
