No_5786-complexes_sdf/6BKW-FPZ/2024-09-17-14-21-01/
     RDKit          3D

 18 19  0  0  0  0  0  0  0  0999 V2000
   -7.7129    4.2099   27.0854 C   0  0  0  0  0  0  0  0  0  0  0  0
   -8.2112    3.0637   26.9225 C   0  0  2  0  0  0  0  0  0  0  0  0
   -7.0021    4.5281   28.2396 C   0  0  0  0  0  0  0  0  0  0  0  0
   -9.4237    2.7810   26.2714 C   0  0  0  0  0  0  0  0  0  0  0  0
   -9.8781    3.7859   25.4663 C   0  0  2  0  0  0  0  0  0  0  0  0
   -9.3689    5.0975   25.5965 C   0  0  0  0  0  0  0  0  0  0  0  0
   -8.4784    5.3402   26.5448 C   0  0  0  0  0  0  0  0  0  0  0  0
  -10.9798    3.5389   24.5162 C   0  0  0  0  0  0  0  0  0  0  0  0
  -10.8020    3.9004   23.2347 C   0  0  0  0  0  0  0  0  0  0  0  0
  -12.1310    2.9282   24.9142 C   0  0  0  0  0  0  0  0  0  0  0  0
  -11.6246    3.6445   22.1603 C   0  0  0  0  0  0  0  0  0  0  0  0
  -13.0973    2.6529   23.8847 C   0  0  0  0  0  0  0  0  0  0  0  0
  -12.8411    3.0563   22.5708 C   0  0  0  0  0  0  0  0  0  0  0  0
   -7.5333    1.9485   27.6798 C   0  0  0  0  0  0  0  0  0  0  0  0
   -6.1523    1.6934   27.3382 C   0  0  0  0  0  0  0  0  0  0  0  0
   -5.6733    0.4343   27.5640 C   0  0  0  0  0  0  0  0  0  0  0  0
   -6.4852   -0.6181   27.9714 C   0  0  0  0  0  0  0  0  0  0  0  0
   -5.9502   -1.8044   28.3746 C   0  0  0  0  0  0  0  0  0  0  0  0
  1  2  1  0
  1  3  2  0
  2  4  1  0
  4  5  1  0
  5  6  1  0
  1  7  1  0
  6  7  1  0
  5  8  1  1
  2 14  1  1
 14 15  1  0
 15 16  2  3
 16 17  1  0
 17 18  2  0
  8  9  2  0
  9 11  1  0
 11 13  2  0
 13 12  1  0
 12 10  2  0
 10  8  1  0
M  END
$$$$
