No_5281-complexes_sdf/6BKW-FPZ/2024-09-17-14-21-01/
     RDKit          3D

 25 28  0  0  0  0  0  0  0  0999 V2000
   -7.9040    3.9820   27.1177 C   0  0  0  0  0  0  0  0  0  0  0  0
   -9.0711    4.3164   27.0630 C   0  0  0  0  0  0  0  0  0  0  0  0
   -9.5294    5.4517   27.7215 C   0  0  0  0  0  0  0  0  0  0  0  0
   -7.4336    2.7132   26.5681 C   0  0  0  0  0  0  0  0  0  0  0  0
   -8.3353    1.8569   26.0442 C   0  0  0  0  0  0  0  0  0  0  0  0
   -9.6477    2.2853   25.9146 C   0  0  0  0  0  0  0  0  0  0  0  0
  -10.0346    3.4497   26.4483 C   0  0  2  0  0  0  0  0  0  0  0  0
   -7.8750    0.5509   25.5918 C   0  0  0  0  0  0  0  0  0  0  0  0
   -6.9702    0.0164   26.1017 O   0  0  0  0  0  0  0  0  0  0  0  0
   -8.6762   -0.1044   24.8399 O   0  0  0  0  0  0  0  0  0  0  0  0
   -6.8479    4.7447   27.9283 C   0  0  0  0  0  0  0  0  0  0  0  0
   -7.3081    5.9924   28.4694 C   0  0  0  0  0  0  0  0  0  0  0  0
   -8.6495    6.2726   27.9011 C   0  0  0  0  0  0  0  0  0  0  0  0
  -11.4068    3.8738   26.1502 C   0  0  0  0  0  0  0  0  0  0  0  0
  -12.3008    3.7239   27.2373 C   0  0  0  0  0  0  0  0  0  0  0  0
  -13.6060    4.1446   27.1950 C   0  0  0  0  0  0  0  0  0  0  0  0
  -14.0658    4.5190   25.8863 C   0  0  0  0  0  0  0  0  0  0  0  0
  -11.8772    4.2427   24.9533 C   0  0  0  0  0  0  0  0  0  0  0  0
  -13.1890    4.6309   24.8250 C   0  0  0  0  0  0  0  0  0  0  0  0
  -11.0068    4.3353   23.7926 C   0  0  0  0  0  0  0  0  0  0  0  0
   -9.9647    4.8848   23.6616 C   0  0  0  0  0  0  0  0  0  0  0  0
  -11.5559    3.4322   22.7450 C   0  0  0  0  0  0  0  0  0  0  0  0
  -10.7716    3.1546   21.7582 C   0  0  0  0  0  0  0  0  0  0  0  0
   -9.2870    4.8914   22.4384 N   0  0  0  0  0  0  0  0  0  0  0  0
   -9.6995    4.0504   21.4780 C   0  0  0  0  0  0  0  0  0  0  0  0
  1  4  1  0
  4  5  1  0
  5  6  1  0
  2  7  1  0
  6  7  1  0
  5  8  1  0
  8  9  2  0
  8 10  1  0
  7 14  1  6
 18 20  1  0
 20 21  2  0
 21 24  1  0
 24 25  2  0
 25 23  1  0
 23 22  2  0
 22 20  1  0
 14 15  2  0
 15 16  1  0
 16 17  2  0
 17 19  1  0
 19 18  2  0
 18 14  1  0
  1  2  1  0
  2  3  2  0
  3 13  1  0
 13 12  2  0
 12 11  1  0
 11  1  2  0
M  END
$$$$
