No_5770-complexes_sdf/6BKW-FPZ/2024-09-17-14-21-01/
     RDKit          3D

 28 31  0  0  0  0  0  0  0  0999 V2000
   -7.2496    3.8871   27.4508 C   0  0  0  0  0  0  0  0  0  0  0  0
   -7.6161    2.7143   27.1523 C   0  0  0  0  0  0  0  0  0  0  0  0
   -8.8302    2.4659   26.5056 C   0  0  0  0  0  0  0  0  0  0  0  0
   -8.1584    5.0090   27.3234 C   0  0  0  0  0  0  0  0  0  0  0  0
   -7.8138    6.3406   27.7108 C   0  0  0  0  0  0  0  0  0  0  0  0
   -9.7360    3.4989   26.3532 C   0  0  0  0  0  0  0  0  0  0  0  0
   -9.3942    4.8432   26.7521 C   0  0  0  0  0  0  0  0  0  0  0  0
   -9.1857    1.0968   26.1448 C   0  0  2  0  0  0  0  0  0  0  0  0
   -9.1439    0.7658   24.9721 C   0  0  0  0  0  0  0  0  0  0  0  0
   -8.8800    1.7500   23.9061 C   0  0  0  0  0  0  0  0  0  0  0  0
   -9.0012    1.4501   22.5181 C   0  0  0  0  0  0  0  0  0  0  0  0
   -9.4398    0.5168   22.2289 C   0  0  0  0  0  0  0  0  0  0  0  0
   -9.7321   -0.6813   22.9828 C   0  0  0  0  0  0  0  0  0  0  0  0
   -9.6223   -0.4528   24.3589 C   0  0  0  0  0  0  0  0  0  0  0  0
  -10.3831    0.5311   26.9746 C   0  0  0  0  0  0  0  0  0  0  0  0
  -10.0201   -0.5523   27.6784 C   0  0  0  0  0  0  0  0  0  0  0  0
  -11.0342   -1.0901   28.6181 C   0  0  0  0  0  0  0  0  0  0  0  0
  -12.2856   -0.4315   28.6527 C   0  0  0  0  0  0  0  0  0  0  0  0
  -12.5266    0.6823   27.9241 C   0  0  0  0  0  0  0  0  0  0  0  0
  -11.5299    1.2517   27.1012 C   0  0  0  0  0  0  0  0  0  0  0  0
   -8.5294    7.3649   27.3207 O   0  0  0  0  0  0  0  0  0  0  0  0
   -6.7103    6.5693   28.3968 O   0  0  0  0  0  0  0  0  0  0  0  0
   -8.7478   -1.2420   27.6445 C   0  0  0  0  0  0  0  0  0  0  0  0
   -7.7048   -0.7879   27.5178 N   0  0  0  0  0  0  0  0  0  0  0  0
   -6.4428   -1.4180   27.5121 C   0  0  0  0  0  0  0  0  0  0  0  0
   -8.7768   -2.6791   27.7147 C   0  0  0  0  0  0  0  0  0  0  0  0
   -7.6205   -3.4257   27.7339 C   0  0  0  0  0  0  0  0  0  0  0  0
   -6.4312   -2.7568   27.6419 C   0  0  0  0  0  0  0  0  0  0  0  0
  4  5  1  0
  8  3  1  6
  8 15  1  0
  5 21  2  0
  5 22  1  0
 16 23  1  0
  8  9  1  0
  1  2  2  0
  2  3  1  0
  3  6  2  0
  6  7  1  0
  7  4  2  0
  4  1  1  0
 23 24  2  0
 24 25  1  0
 25 28  2  0
 28 27  1  0
 27 26  2  0
 26 23  1  0
 15 16  1  0
 16 17  2  0
 17 18  1  0
 18 19  2  0
 19 20  1  0
 20 15  2  0
  9 10  2  0
 10 11  1  0
 11 12  2  0
 12 13  1  0
 13 14  2  0
 14  9  1  0
M  END
$$$$
