No_5908-complexes_sdf/6BKW-FPZ/2024-09-17-14-21-01/
     RDKit          3D

 17 19  0  0  0  0  0  0  0  0999 V2000
   -7.2496    3.8871   27.4508 C   0  0  0  0  0  0  0  0  0  0  0  0
   -7.6161    2.7143   27.1523 C   0  0  0  0  0  0  0  0  0  0  0  0
   -7.1618    1.8631   27.5233 C   0  0  0  0  0  0  0  0  0  0  0  0
   -8.0036    5.1085   27.2100 C   0  0  2  0  0  0  0  0  0  0  0  0
   -9.0765    5.1561   26.4023 C   0  0  0  0  0  0  0  0  0  0  0  0
   -9.5423    3.9740   25.8512 C   0  0  0  0  0  0  0  0  0  0  0  0
   -8.8464    2.7351   26.2620 C   0  0  0  0  0  0  0  0  0  0  0  0
   -7.5924    0.4292   27.3762 C   0  0  0  0  0  0  0  0  0  0  0  0
   -8.8064    0.3082   26.6948 C   0  0  0  0  0  0  0  0  0  0  0  0
   -9.4560    1.4925   26.0294 C   0  0  0  0  0  0  0  0  0  0  0  0
   -7.3491    6.6140   27.9249 Cl  0  0  0  0  0  0  0  0  0  0  0  0
  -10.5971    1.2827   25.2435 C   0  0  0  0  0  0  0  0  0  0  0  0
  -11.6652    1.8021   25.6770 C   0  0  0  0  0  0  0  0  0  0  0  0
  -12.7373    2.0541   24.8966 C   0  0  0  0  0  0  0  0  0  0  0  0
  -10.3831    0.7888   23.9361 C   0  0  0  0  0  0  0  0  0  0  0  0
  -11.5148    0.9134   23.0603 C   0  0  0  0  0  0  0  0  0  0  0  0
  -12.6774    1.4737   23.5585 C   0  0  0  0  0  0  0  0  0  0  0  0
  1  2  1  0
  1  4  1  0
  4  5  1  0
  5  6  1  0
  6  7  1  0
  4 11  1  6
 10 12  1  0
 12 13  2  0
 13 14  1  0
 14 17  2  0
 17 16  1  0
 16 15  2  0
 15 12  1  0
  2  3  2  0
  3  8  1  0
  8  9  2  0
  9 10  1  0
 10  7  2  0
  7  2  1  0
M  END
$$$$
