No_5305-complexes_sdf/6BKW-FPZ/2024-09-17-14-21-01/
     RDKit          3D

 14 16  0  0  0  0  0  0  0  0999 V2000
   -7.9040    3.9820   27.1177 C   0  0  0  0  0  0  0  0  0  0  0  0
   -9.0711    4.3164   27.0630 C   0  0  0  0  0  0  0  0  0  0  0  0
   -9.5294    5.4517   27.7215 C   0  0  0  0  0  0  0  0  0  0  0  0
   -6.9328    4.7309   27.8881 C   0  0  0  0  0  0  0  0  0  0  0  0
   -7.3377    5.8421   28.5537 C   0  0  0  0  0  0  0  0  0  0  0  0
   -8.6411    6.2609   28.3972 C   0  0  0  0  0  0  0  0  0  0  0  0
  -10.0493    3.4953   26.2711 C   0  0  0  0  0  0  0  0  0  0  0  0
   -9.5633    2.5387   25.5194 C   0  0  0  0  0  0  0  0  0  0  0  0
  -10.4262    1.8626   24.6529 C   0  0  0  0  0  0  0  0  0  0  0  0
   -9.9255    0.8204   23.8350 C   0  0  0  0  0  0  0  0  0  0  0  0
   -8.5803    0.3869   24.0428 C   0  0  0  0  0  0  0  0  0  0  0  0
   -7.8066    0.9670   24.9810 C   0  0  0  0  0  0  0  0  0  0  0  0
   -8.2211    2.0143   25.7534 C   0  0  0  0  0  0  0  0  0  0  0  0
   -7.3375    2.7408   26.5462 C   0  0  0  0  0  0  0  0  0  0  0  0
  2  7  1  0
  7  8  2  0
 13 14  2  0
 14  1  1  0
  1  2  1  0
  2  3  2  0
  3  6  1  0
  6  5  2  0
  5  4  1  0
  4  1  2  0
  8  9  1  0
  9 10  2  0
 10 11  1  0
 11 12  2  0
 12 13  1  0
 13  8  1  0
M  END
$$$$
