No_5574-complexes_sdf/6BKW-FPZ/2024-09-17-14-21-01/
     RDKit          3D

 16 18  0  0  0  0  0  0  0  0999 V2000
   -7.7129    4.2099   27.0854 C   0  0  0  0  0  0  0  0  0  0  0  0
   -7.7814    5.1722   27.8972 C   0  0  0  0  0  0  0  0  0  0  0  0
   -8.8776    3.8408   26.3416 C   0  0  0  0  0  0  0  0  0  0  0  0
   -9.9844    4.6492   26.4743 C   0  0  0  0  0  0  0  0  0  0  0  0
   -8.8033    6.1375   27.8728 C   0  0  0  0  0  0  0  0  0  0  0  0
   -9.9554    5.8280   27.1737 C   0  0  0  0  0  0  0  0  0  0  0  0
   -8.8704    2.7021   25.6054 N   0  0  0  0  0  0  0  0  0  0  0  0
   -8.3267    1.5520   26.1094 C   0  0  0  0  0  0  0  0  0  0  0  0
   -8.3033    0.4009   25.2886 C   0  0  0  0  0  0  0  0  0  0  0  0
   -9.8724    2.3451   24.7410 C   0  0  2  0  0  0  0  0  0  0  0  0
   -9.8425    1.3208   23.9096 C   0  0  0  0  0  0  0  0  0  0  0  0
   -9.0539    0.2746   24.2493 C   0  0  0  0  0  0  0  0  0  0  0  0
  -11.0950    4.3066   25.6263 C   0  0  0  0  0  0  0  0  0  0  0  0
  -10.9739    3.3290   24.6042 C   0  0  2  0  0  0  0  0  0  0  0  0
  -11.9523    3.2439   23.6142 C   0  0  0  0  0  0  0  0  0  0  0  0
  -11.6238    3.6731   22.3918 C   0  0  0  0  0  0  0  0  0  0  0  0
  3  7  1  0
  7  8  1  0
  7 10  1  0
  9 12  1  0
 11 12  1  0
  4 13  1  0
 10 14  1  0
 13 14  1  0
 14 15  1  1
 15 16  1  0
  8  9  1  0
 10 11  1  6
  1  2  2  0
  2  5  1  0
  5  6  2  0
  6  4  1  0
  4  3  2  0
  3  1  1  0
M  END
$$$$
