No_5112-complexes_sdf/6BKW-FPZ/2024-09-17-14-21-01/
     RDKit          3D

 34 38  0  0  0  0  0  0  0  0999 V2000
   -7.2496    3.8871   27.4508 C   0  0  0  0  0  0  0  0  0  0  0  0
   -8.5096    4.0291   27.2770 C   0  0  0  0  0  0  0  0  0  0  0  0
   -9.2677    5.1714   27.5773 C   0  0  0  0  0  0  0  0  0  0  0  0
   -6.6520    2.6709   27.2675 N   0  0  0  0  0  0  0  0  0  0  0  0
   -5.5220    2.2288   27.7854 C   0  0  0  0  0  0  0  0  0  0  0  0
   -8.4715    6.3279   27.8977 C   0  0  0  0  0  0  0  0  0  0  0  0
   -7.1165    6.2143   27.9146 C   0  0  0  0  0  0  0  0  0  0  0  0
   -6.4695    5.0181   27.7761 C   0  0  0  0  0  0  0  0  0  0  0  0
   -7.4169    1.6124   26.6268 C   0  0  0  0  0  0  0  0  0  0  0  0
   -5.0944    0.8845   27.7872 C   0  0  0  0  0  0  0  0  0  0  0  0
   -3.8203    0.6079   28.3876 C   0  0  0  0  0  0  0  0  0  0  0  0
   -5.8950   -0.0521   27.2353 C   0  0  1  0  0  0  0  0  0  0  0  0
   -5.5603   -1.4406   27.2940 C   0  0  0  0  0  0  0  0  0  0  0  0
   -7.1191    0.2918   26.6950 C   0  0  0  0  0  0  0  0  0  0  0  0
   -3.2820   -0.5305   28.5167 O   0  0  0  0  0  0  0  0  0  0  0  0
   -4.0798   -1.6208   27.9876 C   0  0  0  0  0  0  0  0  0  0  0  0
  -10.6831    5.2990   27.4594 C   0  0  0  0  0  0  0  0  0  0  0  0
  -11.4121    4.7010   28.0696 C   0  0  0  0  0  0  0  0  0  0  0  0
  -12.9232    4.6460   27.9335 C   0  0  0  0  0  0  0  0  0  0  0  0
  -13.4600    4.2910   26.7031 C   0  0  0  0  0  0  0  0  0  0  0  0
  -12.7152    3.8566   25.7576 C   0  0  0  0  0  0  0  0  0  0  0  0
  -13.2621    3.7847   24.4013 C   0  0  0  0  0  0  0  0  0  0  0  0
  -14.5917    4.2368   24.2394 C   0  0  0  0  0  0  0  0  0  0  0  0
  -14.7925    4.6635   26.2993 C   0  0  0  0  0  0  0  0  0  0  0  0
  -15.3155    4.7112   25.1733 C   0  0  0  0  0  0  0  0  0  0  0  0
  -11.1022    3.4990   28.9905 C   0  0  0  0  0  0  0  0  0  0  0  0
  -10.6031    2.2843   28.4360 C   0  0  0  0  0  0  0  0  0  0  0  0
  -11.5239    1.1141   28.5165 C   0  0  0  0  0  0  0  0  0  0  0  0
  -11.0518   -0.1292   28.0303 C   0  0  0  0  0  0  0  0  0  0  0  0
  -11.8451   -1.2035   28.1448 C   0  0  0  0  0  0  0  0  0  0  0  0
  -11.3917   -2.4412   27.6203 C   0  0  0  0  0  0  0  0  0  0  0  0
  -10.1177   -2.4501   27.0580 C   0  0  0  0  0  0  0  0  0  0  0  0
   -9.3657   -1.3546   26.9523 C   0  0  0  0  0  0  0  0  0  0  0  0
   -9.8074   -0.1369   27.5117 C   0  0  0  0  0  0  0  0  0  0  0  0
  1  4  1  0
  4  5  1  0
  4  9  1  0
  5 10  1  0
 10 11  1  0
 10 12  1  0
 12 13  1  0
  9 14  1  0
 12 14  1  1
 11 15  1  0
 13 16  2  0
 15 16  1  0
  3 17  1  0
 17 18  2  3
 18 19  1  0
 19 20  1  0
 18 26  1  0
 26 27  1  0
 27 28  1  0
 28 29  1  0
 29 30  2  0
 30 31  1  0
 31 32  2  0
 32 33  1  0
 33 34  2  0
 34 29  1  0
 20 21  2  0
 21 22  1  0
 22 23  2  0
 23 25  1  0
 25 24  2  0
 24 20  1  0
  1  2  2  0
  2  3  1  0
  3  6  2  0
  6  7  1  0
  7  8  2  0
  8  1  1  0
M  END
$$$$
