No_5331-complexes_sdf/6BKW-FPZ/2024-09-17-14-21-01/
     RDKit          3D

 18 19  0  0  0  0  0  0  0  0999 V2000
   -7.2496    3.8871   27.4508 C   0  0  0  0  0  0  0  0  0  0  0  0
   -7.6161    2.7143   27.1523 C   0  0  0  0  0  0  0  0  0  0  0  0
   -8.6212    2.2239   26.4073 C   0  0  0  0  0  0  0  0  0  0  0  0
   -8.2540    4.9237   27.1711 C   0  0  0  0  0  0  0  0  0  0  0  0
   -9.3729    4.5806   26.4432 C   0  0  0  0  0  0  0  0  0  0  0  0
   -9.5830    3.2968   26.1025 C   0  0  0  0  0  0  0  0  0  0  0  0
   -8.1547    6.3411   27.5271 C   0  0  0  0  0  0  0  0  0  0  0  0
   -9.0313    7.2341   27.1367 N   0  0  0  0  0  0  0  0  0  0  0  0
   -6.5851    1.5819   27.5362 C   0  0  0  0  0  0  0  0  0  0  0  0
   -5.4366    1.9186   28.1177 N   0  0  0  0  0  0  0  0  0  0  0  0
   -6.6994    0.2245   27.1317 C   0  0  0  0  0  0  0  0  0  0  0  0
   -5.7065   -0.5949   27.5396 C   0  0  0  0  0  0  0  0  0  0  0  0
   -4.5963   -0.2440   28.1660 C   0  0  0  0  0  0  0  0  0  0  0  0
   -4.4947    1.1650   28.4841 C   0  0  0  0  0  0  0  0  0  0  0  0
   -3.5427   -1.1476   28.6527 C   0  0  0  0  0  0  0  0  0  0  0  0
   -2.5474   -1.0138   28.2267 O   0  0  0  0  0  0  0  0  0  0  0  0
   -3.8988   -2.0331   29.5224 O   0  0  0  0  0  0  0  0  0  0  0  0
   -7.3125    6.6230   28.4630 N   0  0  0  0  0  0  0  0  0  0  0  0
  4  7  1  0
  7  8  2  0
  2  9  1  0
 13 15  1  0
 15 16  2  0
 15 17  1  0
  7 18  1  0
  1  2  2  0
  2  3  1  0
  3  6  2  0
  6  5  1  0
  5  4  2  0
  4  1  1  0
  9 10  2  0
 10 14  1  0
 14 13  2  0
 13 12  1  0
 12 11  2  0
 11  9  1  0
M  END
$$$$
