No_5401-complexes_sdf/6BKW-FPZ/2024-09-17-14-21-01/
     RDKit          3D

 29 31  0  0  0  0  0  0  0  0999 V2000
   -7.9040    3.9820   27.1177 C   0  0  0  0  0  0  0  0  0  0  0  0
   -7.8663    4.8694   27.9238 C   0  0  0  0  0  0  0  0  0  0  0  0
   -9.0953    3.1697   27.0532 C   0  0  0  0  0  0  0  0  0  0  0  0
  -10.1313    3.4052   27.8871 C   0  0  0  0  0  0  0  0  0  0  0  0
   -8.9489    5.3814   28.6671 C   0  0  0  0  0  0  0  0  0  0  0  0
  -10.1039    4.5714   28.7102 C   0  0  0  0  0  0  0  0  0  0  0  0
   -9.0505    1.9437   26.1963 C   0  0  0  0  0  0  0  0  0  0  0  0
   -8.3463    0.9026   26.3336 N   0  0  0  0  0  0  0  0  0  0  0  0
   -8.3195   -0.0627   25.4437 C   0  0  0  0  0  0  0  0  0  0  0  0
   -9.7618    2.1011   25.1509 O   0  0  0  0  0  0  0  0  0  0  0  0
   -8.8712   -1.2963   25.7351 C   0  0  0  0  0  0  0  0  0  0  0  0
   -9.1303   -1.6223   26.9938 C   0  0  0  0  0  0  0  0  0  0  0  0
   -8.6229   -0.7096   28.0498 C   0  0  0  0  0  0  0  0  0  0  0  0
   -8.8394    0.4018   27.7730 C   0  0  0  0  0  0  0  0  0  0  0  0
  -11.3609    2.6153   27.9057 C   0  0  0  0  0  0  0  0  0  0  0  0
  -11.9119    1.9248   27.3577 C   0  0  0  0  0  0  0  0  0  0  0  0
  -13.1043    1.1365   27.6256 C   0  0  0  0  0  0  0  0  0  0  0  0
  -13.6429    1.3772   28.8746 C   0  0  0  0  0  0  0  0  0  0  0  0
  -13.1160    2.2777   29.7435 C   0  0  0  0  0  0  0  0  0  0  0  0
  -11.9584    2.9838   29.3780 C   0  0  0  0  0  0  0  0  0  0  0  0
  -13.6958    2.5444   30.9159 F   0  0  0  0  0  0  0  0  0  0  0  0
   -9.5729   -3.0069   27.4093 C   0  0  0  0  0  0  0  0  0  0  0  0
   -9.6775   -3.5106   28.4235 N   0  0  0  0  0  0  0  0  0  0  0  0
   -9.2560   -2.9721   29.5007 C   0  0  0  0  0  0  0  0  0  0  0  0
   -9.6120   -3.6898   30.7661 C   0  0  0  0  0  0  0  0  0  0  0  0
   -9.6679   -2.9660   31.8961 C   0  0  0  0  0  0  0  0  0  0  0  0
   -9.4045   -3.1337   33.0606 C   0  0  0  0  0  0  0  0  0  0  0  0
   -8.7449   -4.3467   33.4392 C   0  0  0  0  0  0  0  0  0  0  0  0
   -8.6484   -5.2775   32.3569 C   0  0  0  0  0  0  0  0  0  0  0  0
  3  7  1  0
  7  8  1  0
  8  9  1  0
  7 10  2  0
  9 11  1  0
 12 13  1  0
  8 14  1  0
  4 15  1  0
 19 21  1  0
 12 22  1  0
 22 23  1  0
 23 24  1  0
 24 25  2  3
 25 26  1  0
 26 27  2  3
 27 28  1  0
 28 29  2  0
 11 12  1  0
 13 14  1  0
 15 16  2  0
 16 17  1  0
 17 18  2  0
 18 19  1  0
 19 20  2  0
 20 15  1  0
  1  2  2  0
  2  5  1  0
  5  6  2  0
  6  4  1  0
  4  3  2  0
  3  1  1  0
M  END
$$$$
