No_5448-complexes_sdf/6BKW-FPZ/2024-09-17-14-21-01/
     RDKit          3D

 26 28  0  0  0  0  0  0  0  0999 V2000
   -7.7129    4.2099   27.0854 C   0  0  0  0  0  0  0  0  0  0  0  0
   -7.7814    5.1722   27.8972 C   0  0  0  0  0  0  0  0  0  0  0  0
   -8.8776    3.8408   26.3416 C   0  0  0  0  0  0  0  0  0  0  0  0
   -9.9844    4.6492   26.4743 C   0  0  0  0  0  0  0  0  0  0  0  0
   -8.8033    6.1375   27.8728 C   0  0  0  0  0  0  0  0  0  0  0  0
   -9.9554    5.8280   27.1737 C   0  0  0  0  0  0  0  0  0  0  0  0
   -8.6892    2.5936   25.5906 C   0  0  0  0  0  0  0  0  0  0  0  0
   -8.3785    1.4399   26.3375 C   0  0  0  0  0  0  0  0  0  0  0  0
   -7.9922    1.4912   27.4763 C   0  0  0  0  0  0  0  0  0  0  0  0
   -8.4198    0.2491   25.4693 C   0  0  0  0  0  0  0  0  0  0  0  0
   -9.3119    0.0863   24.5755 C   0  0  0  0  0  0  0  0  0  0  0  0
   -9.6011    1.2279   23.7666 C   0  0  0  0  0  0  0  0  0  0  0  0
   -9.4936    2.4982   24.3891 C   0  0  0  0  0  0  0  0  0  0  0  0
  -10.3087    1.2017   22.4830 C   0  0  0  0  0  0  0  0  0  0  0  0
  -10.4633    2.2933   21.9042 N   0  0  0  0  0  0  0  0  0  0  0  0
   -9.7563    3.2213   21.7739 C   0  0  0  0  0  0  0  0  0  0  0  0
  -11.7738    2.2687   21.0787 C   0  0  0  0  0  0  0  0  0  0  0  0
   -6.6999    5.5913   28.6138 F   0  0  0  0  0  0  0  0  0  0  0  0
  -10.3751    4.4990   21.3670 C   0  0  0  0  0  0  0  0  0  0  0  0
  -12.3446    3.4589   20.6762 C   0  0  0  0  0  0  0  0  0  0  0  0
  -11.5034    4.6048   20.6632 C   0  0  0  0  0  0  0  0  0  0  0  0
  -10.4725    0.0523   21.9972 O   0  0  0  0  0  0  0  0  0  0  0  0
   -7.1602    0.2086   28.0260 C   0  0  0  0  0  0  0  0  0  0  0  0
   -5.9882    0.2250   28.4806 C   0  0  0  0  0  0  0  0  0  0  0  0
   -5.3286   -0.9377   28.9225 C   0  0  0  0  0  0  0  0  0  0  0  0
   -6.0576   -2.0941   28.9127 C   0  0  0  0  0  0  0  0  0  0  0  0
  3  7  1  0
 12 14  1  0
 14 15  1  0
 15 16  1  0
 15 17  1  0
  2 18  1  0
 19 21  1  0
 20 21  1  0
 14 22  2  0
  9 23  1  0
 23 24  2  3
 24 25  1  0
 25 26  2  0
  9  8  1  0
 16 19  1  0
 20 17  1  0
  7  8  2  0
  8 10  1  0
 10 11  2  0
 11 12  1  0
 12 13  2  0
 13  7  1  0
  1  2  2  0
  2  5  1  0
  5  6  2  0
  6  4  1  0
  4  3  2  0
  3  1  1  0
M  END
$$$$
