No_5016-complexes_sdf/6BKW-FPZ/2024-09-17-14-21-01/
     RDKit          3D

 24 27  0  0  0  0  0  0  0  0999 V2000
   -7.2496    3.8871   27.4508 C   0  0  0  0  0  0  0  0  0  0  0  0
   -7.2629    2.7525   27.0579 N   0  0  0  0  0  0  0  0  0  0  0  0
   -8.2471    4.7473   27.8951 C   0  0  0  0  0  0  0  0  0  0  0  0
   -9.5589    4.1663   27.8567 C   0  0  0  0  0  0  0  0  0  0  0  0
   -8.6190    2.1750   27.1159 C   0  0  0  0  0  0  0  0  0  0  0  0
   -9.7078    2.8938   27.5836 C   0  0  0  0  0  0  0  0  0  0  0  0
   -8.7299    0.8679   26.7880 N   0  0  0  0  0  0  0  0  0  0  0  0
   -7.7376    0.1589   26.5707 C   0  0  0  0  0  0  0  0  0  0  0  0
   -7.3866   -0.8261   26.5948 C   0  0  0  0  0  0  0  0  0  0  0  0
   -8.4193   -1.8243   27.0774 C   0  0  0  0  0  0  0  0  0  0  0  0
   -9.6661   -1.1901   27.3410 C   0  0  2  0  0  0  0  0  0  0  0  0
   -9.7529    0.1848   27.3556 C   0  0  1  0  0  0  0  0  0  0  0  0
   -8.0106    6.0735   28.1943 N   0  0  0  0  0  0  0  0  0  0  0  0
   -8.6454    7.0443   27.3622 C   0  0  0  0  0  0  0  0  0  0  0  0
   -8.0615    7.2126   25.9908 C   0  0  0  0  0  0  0  0  0  0  0  0
  -10.7693   -2.0496   27.9401 C   0  0  0  0  0  0  0  0  0  0  0  0
  -11.6892   -1.4969   28.7995 C   0  0  0  0  0  0  0  0  0  0  0  0
  -12.7005   -1.9308   29.2835 C   0  0  0  0  0  0  0  0  0  0  0  0
  -13.5710   -1.2120   30.1375 C   0  0  0  0  0  0  0  0  0  0  0  0
  -13.5640    0.2018   30.0967 C   0  0  0  0  0  0  0  0  0  0  0  0
  -12.5250    0.8324   29.3590 C   0  0  0  0  0  0  0  0  0  0  0  0
  -11.6303    0.1076   28.7239 C   0  0  0  0  0  0  0  0  0  0  0  0
  -10.6315    0.7209   28.0092 N   0  0  0  0  0  0  0  0  0  0  0  0
  -10.6998    2.1645   28.1428 C   0  0  0  0  0  0  0  0  0  0  0  0
  5  7  1  0
  7  8  1  0
  9 10  1  0
 11 10  1  1
 12  7  1  1
 11 12  1  0
  3 13  1  0
 13 14  1  0
 14 15  1  0
 11 16  1  0
 12 23  1  0
 22 23  1  0
 23 24  1  0
  8  9  1  0
 16 17  1  0
 17 18  2  0
 18 19  1  0
 19 20  2  0
 20 21  1  0
 21 22  2  0
 22 17  1  0
  1  2  2  0
  2  5  1  0
  5  6  2  0
  6  4  1  0
  4  3  2  0
  3  1  1  0
M  END
$$$$
