No_5727-complexes_sdf/6BKW-FPZ/2024-09-17-14-21-01/
     RDKit          3D

 22 25  0  0  0  0  0  0  0  0999 V2000
   -7.7129    4.2099   27.0854 C   0  0  0  0  0  0  0  0  0  0  0  0
   -8.2112    3.0637   26.9225 C   0  0  0  0  0  0  0  0  0  0  0  0
   -8.5108    5.3904   26.9436 C   0  0  0  0  0  0  0  0  0  0  0  0
   -9.7256    5.1955   26.3518 C   0  0  0  0  0  0  0  0  0  0  0  0
   -9.4995    2.8258   26.4878 C   0  0  0  0  0  0  0  0  0  0  0  0
  -10.2542    3.9691   26.2055 C   0  0  0  0  0  0  0  0  0  0  0  0
   -7.9470    6.5632   27.1671 F   0  0  0  0  0  0  0  0  0  0  0  0
   -7.4156    1.9051   27.2332 N   0  0  0  0  0  0  0  0  0  0  0  0
   -6.1382    2.0166   27.7269 C   0  0  0  0  0  0  0  0  0  0  0  0
   -5.3293    0.7361   27.7308 C   0  0  0  0  0  0  0  0  0  0  0  0
   -6.0426   -0.3660   27.4507 C   0  0  0  0  0  0  0  0  0  0  0  0
   -7.5952    0.5099   26.9570 C   0  0  0  0  0  0  0  0  0  0  0  0
   -3.9939    0.6872   28.3218 C   0  0  0  0  0  0  0  0  0  0  0  0
   -3.6153   -0.5889   28.8545 C   0  0  0  0  0  0  0  0  0  0  0  0
   -4.0065   -1.5707   28.2735 C   0  0  0  0  0  0  0  0  0  0  0  0
   -5.6338   -1.5273   27.7342 C   0  0  0  0  0  0  0  0  0  0  0  0
  -11.5974    3.8177   25.6202 C   0  0  0  0  0  0  0  0  0  0  0  0
  -12.6540    3.8491   26.4525 C   0  0  0  0  0  0  0  0  0  0  0  0
  -13.9557    4.0373   26.0331 C   0  0  0  0  0  0  0  0  0  0  0  0
  -14.1500    4.0168   24.6216 C   0  0  0  0  0  0  0  0  0  0  0  0
  -11.8053    3.9129   24.2421 C   0  0  0  0  0  0  0  0  0  0  0  0
  -13.0457    4.0447   23.7492 C   0  0  0  0  0  0  0  0  0  0  0  0
  3  7  1  0
  2  8  1  0
  8  9  1  0
  8 12  1  0
  6 17  1  0
  9 10  1  0
 12 11  1  0
 17 18  2  0
 18 19  1  0
 19 20  2  0
 20 22  1  0
 22 21  2  0
 21 17  1  0
  1  2  2  0
  2  5  1  0
  5  6  2  0
  6  4  1  0
  4  3  2  0
  3  1  1  0
 10 11  2  0
 11 16  1  0
 16 15  2  0
 15 14  1  0
 14 13  2  0
 13 10  1  0
M  END
$$$$
