No_5842-complexes_sdf/6BKW-FPZ/2024-09-17-14-21-01/
     RDKit          3D

 34 38  0  0  0  0  0  0  0  0999 V2000
   -7.9040    3.9820   27.1177 C   0  0  0  0  0  0  0  0  0  0  0  0
   -7.8663    4.8694   27.9238 C   0  0  0  0  0  0  0  0  0  0  0  0
   -7.4547    2.7080   27.4594 C   0  0  0  0  0  0  0  0  0  0  0  0
   -7.9337    1.5946   26.8372 C   0  0  0  0  0  0  0  0  0  0  0  0
   -8.9032    1.7881   25.8510 C   0  0  0  0  0  0  0  0  0  0  0  0
   -9.3787    2.9871   25.5530 C   0  0  0  0  0  0  0  0  0  0  0  0
   -8.9781    4.0300   26.2200 C   0  0  0  0  0  0  0  0  0  0  0  0
   -8.2454    6.2265   27.6332 N   0  0  0  0  0  0  0  0  0  0  0  0
   -9.1863    6.5523   26.7292 C   0  0  0  0  0  0  0  0  0  0  0  0
   -9.5464    5.3954   25.9189 C   0  0  0  0  0  0  0  0  0  0  0  0
   -7.3252    0.2709   27.1267 C   0  0  0  0  0  0  0  0  0  0  0  0
   -6.0491    0.1506   27.6477 C   0  0  0  0  0  0  0  0  0  0  0  0
   -5.5118   -1.0891   27.9912 C   0  0  0  0  0  0  0  0  0  0  0  0
   -6.3218   -2.1888   27.8306 C   0  0  0  0  0  0  0  0  0  0  0  0
   -8.1268   -0.9288   27.0986 C   0  0  0  0  0  0  0  0  0  0  0  0
   -7.6032   -2.1037   27.4413 C   0  0  0  0  0  0  0  0  0  0  0  0
   -4.1128   -1.1196   28.4887 C   0  0  2  0  0  0  0  0  0  0  0  0
   -3.9241   -0.7159   29.8710 C   0  0  0  0  0  0  0  0  0  0  0  0
   -4.0815    0.6174   30.1231 C   0  0  0  0  0  0  0  0  0  0  0  0
   -3.4426   -1.6589   30.8158 C   0  0  0  0  0  0  0  0  0  0  0  0
   -3.4554   -1.3450   32.0974 C   0  0  0  0  0  0  0  0  0  0  0  0
   -3.9145    0.9518   31.6022 C   0  0  0  0  0  0  0  0  0  0  0  0
   -3.5260    0.0021   32.5088 C   0  0  0  0  0  0  0  0  0  0  0  0
   -3.1050   -1.4435   27.5936 C   0  0  0  0  0  0  0  0  0  0  0  0
  -10.3481    3.0774   24.4206 C   0  0  0  0  0  0  0  0  0  0  0  0
  -11.4352    3.8801   24.5036 C   0  0  0  0  0  0  0  0  0  0  0  0
  -10.0769    2.3965   23.2352 C   0  0  0  0  0  0  0  0  0  0  0  0
  -10.7192    1.8725   22.6756 C   0  0  0  0  0  0  0  0  0  0  0  0
  -12.4235    3.6259   23.4740 C   0  0  0  0  0  0  0  0  0  0  0  0
  -12.0576    2.6673   22.4584 C   0  0  0  0  0  0  0  0  0  0  0  0
   -3.1862   -2.2043   26.6897 C   0  0  0  0  0  0  0  0  0  0  0  0
   -2.6867   -2.4723   25.8327 C   0  0  0  0  0  0  0  0  0  0  0  0
   -1.2899   -1.9805   25.7764 C   0  0  0  0  0  0  0  0  0  0  0  0
   -0.9249   -1.1772   26.8062 C   0  0  0  0  0  0  0  0  0  0  0  0
  4 11  1  0
 17 13  1  6
 17 18  1  0
 17 24  1  0
  6 25  1  0
 24 31  2  3
 31 32  1  0
 32 33  2  3
 33 34  1  0
  1  2  2  0
  2  8  1  0
  8  9  2  0
  9 10  1  0
 10  7  2  0
  1  3  1  0
  3  4  2  0
  4  5  1  0
  5  6  2  0
  6  7  1  0
  7  1  1  0
 18 19  2  0
 19 22  1  0
 22 23  2  0
 23 21  1  0
 21 20  2  0
 20 18  1  0
 11 12  2  0
 12 13  1  0
 13 14  2  0
 14 16  1  0
 16 15  2  0
 15 11  1  0
 25 26  2  0
 26 29  1  0
 29 30  2  0
 30 28  1  0
 28 27  2  0
 27 25  1  0
M  END
$$$$
