No_5111-complexes_sdf/6BKW-FPZ/2024-09-17-14-21-01/
     RDKit          3D

 36 39  0  0  0  0  0  0  0  0999 V2000
   -7.2496    3.8871   27.4508 C   0  0  0  0  0  0  0  0  0  0  0  0
   -7.6161    2.7143   27.1523 C   0  0  0  0  0  0  0  0  0  0  0  0
   -8.6212    2.2239   26.4074 C   0  0  0  0  0  0  0  0  0  0  0  0
   -8.2540    4.9237   27.1711 C   0  0  0  0  0  0  0  0  0  0  0  0
   -9.3709    4.6019   26.4511 C   0  0  0  0  0  0  0  0  0  0  0  0
   -9.5922    3.3274   26.0949 C   0  0  0  0  0  0  0  0  0  0  0  0
   -7.9165    6.3279   27.5749 C   0  0  0  0  0  0  0  0  0  0  0  0
  -10.7701    2.9798   25.2771 C   0  0  0  0  0  0  0  0  0  0  0  0
  -10.6877    2.0314   24.3513 C   0  0  0  0  0  0  0  0  0  0  0  0
  -11.7671    1.7569   23.4790 C   0  0  0  0  0  0  0  0  0  0  0  0
  -12.8801    2.5725   23.5437 C   0  0  0  0  0  0  0  0  0  0  0  0
  -12.9329    3.6269   24.4546 C   0  0  0  0  0  0  0  0  0  0  0  0
  -11.8622    3.9092   25.3133 C   0  0  0  0  0  0  0  0  0  0  0  0
   -8.8968    7.2099   27.4395 F   0  0  0  0  0  0  0  0  0  0  0  0
   -7.5365    6.3943   28.8904 F   0  0  0  0  0  0  0  0  0  0  0  0
   -6.5678    1.5434   27.5150 C   0  0  0  0  0  0  0  0  0  0  0  0
   -5.2996    1.8943   28.0954 C   0  0  0  0  0  0  0  0  0  0  0  0
   -4.3993    0.8782   28.4082 C   0  0  0  0  0  0  0  0  0  0  0  0
   -4.7854   -0.4435   28.3706 C   0  0  0  0  0  0  0  0  0  0  0  0
   -6.0708   -0.7678   27.8637 C   0  0  0  0  0  0  0  0  0  0  0  0
   -6.9497    0.2405   27.4476 C   0  0  0  0  0  0  0  0  0  0  0  0
   -3.8831   -1.5088   28.8352 C   0  0  2  0  0  0  0  0  0  0  0  0
   -4.0848   -2.0906   29.9463 C   0  0  0  0  0  0  0  0  0  0  0  0
   -3.2067   -2.9041   30.4775 C   0  0  0  0  0  0  0  0  0  0  0  0
   -3.3652   -3.5250   31.8324 C   0  0  0  0  0  0  0  0  0  0  0  0
   -4.5393   -3.2240   32.5368 C   0  0  0  0  0  0  0  0  0  0  0  0
   -5.4650   -2.3133   32.0085 C   0  0  0  0  0  0  0  0  0  0  0  0
   -5.2311   -1.6772   30.7883 C   0  0  0  0  0  0  0  0  0  0  0  0
   -2.7531   -1.6691   27.9811 C   0  0  0  0  0  0  0  0  0  0  0  0
   -6.8805    6.8197   26.8699 F   0  0  0  0  0  0  0  0  0  0  0  0
   -6.6800   -1.9559   32.8186 C   0  0  0  0  0  0  0  0  0  0  0  0
   -7.6468   -2.7801   32.8658 F   0  0  0  0  0  0  0  0  0  0  0  0
   -7.1031   -0.7244   32.4105 F   0  0  0  0  0  0  0  0  0  0  0  0
   -6.2688   -1.6824   34.1210 F   0  0  0  0  0  0  0  0  0  0  0  0
   -2.6485   -1.3176   26.6645 C   0  0  0  0  0  0  0  0  0  0  0  0
   -2.0615   -2.9888   28.1588 C   0  0  0  0  0  0  0  0  0  0  0  0
  4  7  1  0
  6  8  1  0
  7 14  1  0
  7 15  1  0
  2 16  1  0
 19 22  1  0
 22 23  1  0
 22 29  1  1
  7 30  1  0
 27 31  1  0
 31 32  1  0
 31 33  1  0
 31 34  1  0
 29 35  1  0
 29 36  1  0
 23 24  2  0
 24 25  1  0
 25 26  2  0
 26 27  1  0
 27 28  2  0
 28 23  1  0
  1  2  2  0
  2  3  1  0
  3  6  2  0
  6  5  1  0
  5  4  2  0
  4  1  1  0
  8  9  2  0
  9 10  1  0
 10 11  2  0
 11 12  1  0
 12 13  2  0
 13  8  1  0
 16 17  2  0
 17 18  1  0
 18 19  2  0
 19 20  1  0
 20 21  2  0
 21 16  1  0
M  END
$$$$
