No_5079-complexes_sdf/6BKW-FPZ/2024-09-17-14-21-01/
     RDKit          3D

 10  9  0  0  0  0  0  0  0  0999 V2000
   -7.7129    4.2099   27.0854 C   0  0  0  0  0  0  0  0  0  0  0  0
   -8.9133    4.4736   27.0998 C   0  0  1  0  0  0  0  0  0  0  0  0
   -9.4643    5.5426   27.7628 C   0  0  0  0  0  0  0  0  0  0  0  0
   -9.8091    3.6358   26.2841 C   0  0  0  0  0  0  0  0  0  0  0  0
  -10.5514    4.0993   25.5100 C   0  0  0  0  0  0  0  0  0  0  0  0
   -7.2645    3.5806   28.4078 C   0  0  0  0  0  0  0  0  0  0  0  0
   -6.1859    2.6272   27.9244 C   0  0  0  0  0  0  0  0  0  0  0  0
  -11.2619    3.3640   24.5994 C   0  0  0  0  0  0  0  0  0  0  0  0
  -11.0947    2.0730   24.5226 C   0  0  0  0  0  0  0  0  0  0  0  0
  -10.1773    1.4601   25.4377 C   0  0  0  0  0  0  0  0  0  0  0  0
  1  2  1  0
  2  3  1  6
  2  4  1  0
  4  5  2  3
  1  6  1  0
  6  7  1  0
  5  8  1  0
  8  9  2  3
  9 10  1  0
M  END
$$$$
