No_5793-complexes_sdf/6BKW-FPZ/2024-09-17-14-21-01/
     RDKit          3D

 12 12  0  0  0  0  0  0  0  0999 V2000
   -7.2496    3.8871   27.4508 C   0  0  0  0  0  0  0  0  0  0  0  0
   -7.6161    2.7143   27.1523 C   0  0  0  0  0  0  0  0  0  0  0  0
   -7.1619    1.8631   27.5232 C   0  0  0  0  0  0  0  0  0  0  0  0
   -8.0036    5.1085   27.2100 C   0  0  2  0  0  0  0  0  0  0  0  0
   -9.0764    5.1562   26.4023 C   0  0  0  0  0  0  0  0  0  0  0  0
   -9.5423    3.9741   25.8512 C   0  0  0  0  0  0  0  0  0  0  0  0
   -8.8464    2.7352   26.2619 C   0  0  0  0  0  0  0  0  0  0  0  0
   -5.7299    1.8018   28.0144 C   0  0  0  0  0  0  0  0  0  0  0  0
   -4.7678    1.1732   27.5409 C   0  0  0  0  0  0  0  0  0  0  0  0
   -4.9182    0.0438   26.7594 C   0  0  0  0  0  0  0  0  0  0  0  0
   -7.2209    6.5435   27.8890 Cl  0  0  0  0  0  0  0  0  0  0  0  0
   -6.2308   -0.3686   26.3892 C   0  0  0  0  0  0  0  0  0  0  0  0
  1  2  1  0
  2  3  2  3
  1  4  1  0
  4  5  1  0
  5  6  1  0
  2  7  1  0
  6  7  1  0
  3  8  1  0
  8  9  2  3
  9 10  1  0
  4 11  1  6
 10 12  2  0
M  END
$$$$
