No_5474-complexes_sdf/6BKW-FPZ/2024-09-17-14-21-01/
     RDKit          3D

 16 17  0  0  0  0  0  0  0  0999 V2000
   -7.9040    3.9820   27.1177 C   0  0  0  0  0  0  0  0  0  0  0  0
   -7.8663    4.8694   27.9238 C   0  0  0  0  0  0  0  0  0  0  0  0
   -7.4547    2.7080   27.4594 C   0  0  0  0  0  0  0  0  0  0  0  0
   -8.7044    6.0412   27.8492 C   0  0  0  0  0  0  0  0  0  0  0  0
   -6.9701    1.8932   27.0570 C   0  0  0  0  0  0  0  0  0  0  0  0
   -6.7873    0.5965   26.7328 C   0  0  0  0  0  0  0  0  0  0  0  0
   -8.4861    4.3331   25.8845 C   0  0  0  0  0  0  0  0  0  0  0  0
   -9.3174    5.4508   25.6654 C   0  0  0  0  0  0  0  0  0  0  0  0
   -9.1980    6.4582   26.6422 C   0  0  0  0  0  0  0  0  0  0  0  0
   -7.5324   -0.1798   25.9618 C   0  0  0  0  0  0  0  0  0  0  0  0
   -8.7182    0.3175   25.5162 C   0  0  0  0  0  0  0  0  0  0  0  0
   -9.1747    0.3050   24.5667 C   0  0  0  0  0  0  0  0  0  0  0  0
  -10.5006    0.9004   24.0920 C   0  0  0  0  0  0  0  0  0  0  0  0
  -11.1502    1.6357   25.0492 C   0  0  0  0  0  0  0  0  0  0  0  0
  -10.6550    1.7501   26.3138 C   0  0  0  0  0  0  0  0  0  0  0  0
   -9.4614    1.1122   26.6606 C   0  0  0  0  0  0  0  0  0  0  0  0
  1  3  1  0
  3  5  3  0
  5  6  1  0
  6 10  2  3
 10 11  1  0
 11 12  2  0
 12 13  1  0
 13 14  2  0
 14 15  1  0
 15 16  2  0
 16 11  1  0
  1  2  2  0
  2  4  1  0
  4  9  2  0
  9  8  1  0
  8  7  2  0
  7  1  1  0
M  END
$$$$
