No_5636-complexes_sdf/6BKW-FPZ/2024-09-17-14-21-01/
     RDKit          3D

 32 35  0  0  0  0  0  0  0  0999 V2000
   -7.9040    3.9820   27.1177 C   0  0  0  0  0  0  0  0  0  0  0  0
   -8.2057    2.8231   26.8733 C   0  0  0  0  0  0  0  0  0  0  0  0
   -9.2962    2.4021   26.1155 C   0  0  0  0  0  0  0  0  0  0  0  0
   -8.7358    5.0662   26.5917 C   0  0  0  0  0  0  0  0  0  0  0  0
   -8.4603    6.4492   26.8781 C   0  0  0  0  0  0  0  0  0  0  0  0
  -10.1146    3.3815   25.6105 C   0  0  0  0  0  0  0  0  0  0  0  0
   -9.8194    4.7235   25.8263 C   0  0  0  0  0  0  0  0  0  0  0  0
   -8.6194    7.3002   26.0888 F   0  0  0  0  0  0  0  0  0  0  0  0
   -7.0512    6.5081   27.3343 F   0  0  0  0  0  0  0  0  0  0  0  0
   -9.2341    6.7311   28.0448 F   0  0  0  0  0  0  0  0  0  0  0  0
   -7.3158    1.6595   27.4401 C   0  0  0  0  0  0  0  0  0  0  0  0
   -7.6789    0.3257   27.3714 C   0  0  0  0  0  0  0  0  0  0  0  0
   -6.7992   -0.6289   27.8277 C   0  0  0  0  0  0  0  0  0  0  0  0
   -5.5233   -0.2342   28.3172 C   0  0  0  0  0  0  0  0  0  0  0  0
   -5.1339    1.1176   28.2483 C   0  0  0  0  0  0  0  0  0  0  0  0
   -5.9520    2.0336   27.7941 C   0  0  0  0  0  0  0  0  0  0  0  0
   -4.5896   -1.2624   28.8640 C   0  0  0  0  0  0  0  0  0  0  0  0
   -3.5111   -1.1215   29.0089 N   0  0  0  0  0  0  0  0  0  0  0  0
   -5.1898   -2.3492   29.1865 F   0  0  0  0  0  0  0  0  0  0  0  0
   -2.7554    0.0012   28.8854 C   0  0  0  0  0  0  0  0  0  0  0  0
   -2.9623    1.2437   28.4863 N   0  0  0  0  0  0  0  0  0  0  0  0
   -3.8144    1.6729   28.3048 C   0  0  0  0  0  0  0  0  0  0  0  0
  -11.2405    3.1199   24.7268 C   0  0  1  0  0  0  0  0  0  0  0  0
  -11.0180    2.8091   23.4976 C   0  0  0  0  0  0  0  0  0  0  0  0
  -10.4406    1.9606   23.0048 C   0  0  0  0  0  0  0  0  0  0  0  0
  -10.1111    1.6045   21.7736 C   0  0  0  0  0  0  0  0  0  0  0  0
  -10.5182    2.4858   20.7560 C   0  0  0  0  0  0  0  0  0  0  0  0
  -11.2207    3.6195   21.1321 C   0  0  0  0  0  0  0  0  0  0  0  0
  -11.4695    3.8673   22.4651 C   0  0  0  0  0  0  0  0  0  0  0  0
  -12.5536    3.0535   25.3321 C   0  0  0  0  0  0  0  0  0  0  0  0
  -13.2415    2.0622   25.4267 C   0  0  0  0  0  0  0  0  0  0  0  0
  -14.5563    2.0347   25.9516 C   0  0  0  0  0  0  0  0  0  0  0  0
  4  5  1  0
  5  8  1  0
  5  9  1  0
  5 10  1  0
  2 11  1  0
 14 17  1  0
 17 18  2  0
 17 19  1  0
 18 20  1  0
 20 21  2  0
 15 22  1  0
 21 22  1  0
 23  6  1  1
 23 24  1  0
 23 30  1  0
 30 31  2  3
 31 32  1  0
  1  2  2  0
  2  3  1  0
  3  6  2  0
  6  7  1  0
  7  4  2  0
  4  1  1  0
 11 12  2  0
 12 13  1  0
 13 14  2  0
 14 15  1  0
 15 16  2  0
 16 11  1  0
 24 25  2  0
 25 26  1  0
 26 27  2  0
 27 28  1  0
 28 29  2  0
 29 24  1  0
M  END
$$$$
