No_5728-complexes_sdf/6BKW-FPZ/2024-09-17-14-21-01/
     RDKit          3D

 27 28  0  0  0  0  0  0  0  0999 V2000
   -7.7129    4.2099   27.0854 C   0  0  0  0  0  0  0  0  0  0  0  0
   -8.2112    3.0637   26.9225 C   0  0  0  0  0  0  0  0  0  0  0  0
   -8.5108    5.3904   26.9436 C   0  0  0  0  0  0  0  0  0  0  0  0
   -7.9752    6.6981   27.2112 C   0  0  0  0  0  0  0  0  0  0  0  0
   -9.5213    2.8208   26.4688 C   0  0  0  0  0  0  0  0  0  0  0  0
  -10.2979    3.9327   26.2378 C   0  0  0  0  0  0  0  0  0  0  0  0
   -9.7894    5.2123   26.4395 C   0  0  0  0  0  0  0  0  0  0  0  0
   -7.1603    1.9307   27.2243 C   0  0  0  0  0  0  0  0  0  0  0  0
   -7.5116    0.8254   26.8717 F   0  0  0  0  0  0  0  0  0  0  0  0
   -6.0491    2.1883   27.6578 F   0  0  0  0  0  0  0  0  0  0  0  0
   -8.0074    7.5652   26.5778 O   0  0  0  0  0  0  0  0  0  0  0  0
   -6.8371    6.5548   28.0918 O   0  0  0  0  0  0  0  0  0  0  0  0
  -11.6278    3.7568   25.6858 C   0  0  0  0  0  0  0  0  0  0  0  0
  -11.8331    4.3505   24.6143 F   0  0  0  0  0  0  0  0  0  0  0  0
  -12.5531    4.1228   26.6189 F   0  0  0  0  0  0  0  0  0  0  0  0
  -11.9376    2.3191   25.3895 C   0  0  0  0  0  0  0  0  0  0  0  0
  -11.9067    1.8800   24.3832 N   0  0  0  0  0  0  0  0  0  0  0  0
  -11.5564    0.6167   23.9732 C   0  0  0  0  0  0  0  0  0  0  0  0
  -11.4051    0.3273   22.5867 C   0  0  0  0  0  0  0  0  0  0  0  0
  -10.9416   -0.6973   22.0439 C   0  0  0  0  0  0  0  0  0  0  0  0
  -10.4838   -1.7566   22.9171 C   0  0  0  0  0  0  0  0  0  0  0  0
  -10.5697   -1.5802   24.2588 C   0  0  0  0  0  0  0  0  0  0  0  0
  -11.0069   -0.3662   24.8054 C   0  0  0  0  0  0  0  0  0  0  0  0
  -10.0825   -2.6359   25.1669 C   0  0  0  0  0  0  0  0  0  0  0  0
  -10.4063   -2.6041   26.3043 F   0  0  0  0  0  0  0  0  0  0  0  0
   -8.6968   -2.5804   25.1126 F   0  0  0  0  0  0  0  0  0  0  0  0
  -10.4109   -3.8305   24.5964 F   0  0  0  0  0  0  0  0  0  0  0  0
  3  4  1  0
  2  8  1  0
  8  9  1  0
  8 10  1  0
  4 11  2  0
  4 12  1  0
  6 13  1  0
 13 14  1  0
 13 15  1  0
 13 16  1  0
 16 17  2  3
 17 18  1  0
 22 24  1  0
 24 25  1  0
 24 26  1  0
 24 27  1  0
 18 19  2  0
 19 20  1  0
 20 21  2  0
 21 22  1  0
 22 23  2  0
 23 18  1  0
  1  2  2  0
  2  5  1  0
  5  6  2  0
  6  7  1  0
  7  3  2  0
  3  1  1  0
M  END
$$$$
