No_5580-complexes_sdf/6BKW-FPZ/2024-09-17-14-21-01/
     RDKit          3D

 19 20  0  0  0  0  0  0  0  0999 V2000
   -7.9040    3.9820   27.1177 C   0  0  0  0  0  0  0  0  0  0  0  0
   -7.8663    4.8694   27.9238 C   0  0  0  0  0  0  0  0  0  0  0  0
   -9.0501    3.8017   26.2617 C   0  0  0  0  0  0  0  0  0  0  0  0
  -10.0189    4.7608   26.3707 C   0  0  0  0  0  0  0  0  0  0  0  0
   -8.6973    5.9722   27.8968 C   0  0  0  0  0  0  0  0  0  0  0  0
   -9.8216    5.8946   27.1241 C   0  0  0  0  0  0  0  0  0  0  0  0
   -8.9544    2.5594   25.4484 C   0  0  0  0  0  0  0  0  0  0  0  0
   -9.8208    1.6456   25.8717 C   0  0  0  0  0  0  0  0  0  0  0  0
   -9.6168    0.4273   25.3465 C   0  0  0  0  0  0  0  0  0  0  0  0
   -8.4866   -0.0043   25.2123 F   0  0  0  0  0  0  0  0  0  0  0  0
  -10.2724   -0.5744   26.1282 F   0  0  0  0  0  0  0  0  0  0  0  0
  -10.2131    0.2639   24.1030 F   0  0  0  0  0  0  0  0  0  0  0  0
  -10.8477    1.8667   26.8255 C   0  0  0  0  0  0  0  0  0  0  0  0
  -11.9710    2.5239   26.6331 C   0  0  0  0  0  0  0  0  0  0  0  0
  -12.9716    2.6993   27.6330 C   0  0  0  0  0  0  0  0  0  0  0  0
  -14.1101    3.4170   27.5518 C   0  0  0  0  0  0  0  0  0  0  0  0
  -14.3109    4.0607   26.2785 C   0  0  0  0  0  0  0  0  0  0  0  0
  -13.3767    3.9724   25.2412 C   0  0  0  0  0  0  0  0  0  0  0  0
  -12.2359    3.2485   25.4257 C   0  0  0  0  0  0  0  0  0  0  0  0
  3  7  1  0
  7  8  1  0
  8  9  1  0
  9 10  1  0
  9 11  1  0
  9 12  1  0
  8 13  1  0
 13 14  1  0
 14 15  2  0
 15 16  1  0
 16 17  2  0
 17 18  1  0
 18 19  2  0
 19 14  1  0
  1  2  2  0
  2  5  1  0
  5  6  2  0
  6  4  1  0
  4  3  2  0
  3  1  1  0
M  END
$$$$
