No_5678-complexes_sdf/6BKW-FPZ/2024-09-17-14-21-01/
     RDKit          3D

 33 36  0  0  0  0  0  0  0  0999 V2000
   -7.9040    3.9820   27.1177 C   0  0  0  0  0  0  0  0  0  0  0  0
   -8.2057    2.8231   26.8733 C   0  0  0  0  0  0  0  0  0  0  0  0
   -8.7695    5.0740   26.7916 C   0  0  0  0  0  0  0  0  0  0  0  0
   -9.9618    4.7598   26.1630 C   0  0  0  0  0  0  0  0  0  0  0  0
   -9.4200    2.4524   26.2850 C   0  0  0  0  0  0  0  0  0  0  0  0
  -10.2590    3.4815   25.9250 C   0  0  0  0  0  0  0  0  0  0  0  0
   -8.3840    6.4693   27.0829 C   0  0  0  0  0  0  0  0  0  0  0  0
   -7.7453    6.8270   28.1334 N   0  0  0  0  0  0  0  0  0  0  0  0
   -8.7661    7.3891   26.2750 O   0  0  0  0  0  0  0  0  0  0  0  0
   -7.2806    1.6730   27.2868 C   0  0  0  0  0  0  0  0  0  0  0  0
   -6.0278    1.9913   27.8492 C   0  0  0  0  0  0  0  0  0  0  0  0
   -5.1381    0.9197   28.1972 C   0  0  0  0  0  0  0  0  0  0  0  0
   -5.5221   -0.3610   28.0596 C   0  0  0  0  0  0  0  0  0  0  0  0
   -7.4023    0.2767   27.2083 C   0  0  0  0  0  0  0  0  0  0  0  0
   -6.7241   -0.6509   27.5732 C   0  0  0  0  0  0  0  0  0  0  0  0
   -4.4002   -1.2375   28.6077 C   0  0  0  0  0  0  0  0  0  0  0  0
   -3.3049   -0.9704   28.9028 C   0  0  0  0  0  0  0  0  0  0  0  0
   -2.9935    0.5372   28.9667 C   0  0  0  0  0  0  0  0  0  0  0  0
   -3.8392    1.4525   28.6045 C   0  0  0  0  0  0  0  0  0  0  0  0
  -11.4912    3.1681   25.1535 C   0  0  0  0  0  0  0  0  0  0  0  0
  -12.5974    2.7410   25.7901 C   0  0  0  0  0  0  0  0  0  0  0  0
  -12.5638    2.6544   27.2567 C   0  0  0  0  0  0  0  0  0  0  0  0
  -13.7559    2.1807   27.9608 C   0  0  0  0  0  0  0  0  0  0  0  0
  -14.8422    1.8748   27.1685 C   0  0  0  0  0  0  0  0  0  0  0  0
  -14.8921    1.9877   25.8546 C   0  0  0  0  0  0  0  0  0  0  0  0
  -13.7946    2.4639   25.1380 C   0  0  0  0  0  0  0  0  0  0  0  0
  -11.4913    3.3820   23.7430 C   0  0  0  0  0  0  0  0  0  0  0  0
  -11.8399    4.4908   23.1320 C   0  0  0  0  0  0  0  0  0  0  0  0
  -11.9700    5.6413   23.8433 C   0  0  0  0  0  0  0  0  0  0  0  0
  -11.8869    4.4058   21.6679 C   0  0  0  0  0  0  0  0  0  0  0  0
  -13.0807    4.1335   21.0012 C   0  0  0  0  0  0  0  0  0  0  0  0
  -10.7018    4.5971   20.8996 C   0  0  0  0  0  0  0  0  0  0  0  0
  -10.0350    3.4137   20.4537 C   0  0  0  0  0  0  0  0  0  0  0  0
  3  7  1  0
  7  8  2  0
  7  9  1  0
  2 10  1  0
  6 20  1  0
 20 27  1  0
 27 28  2  3
 28 29  1  0
 28 30  1  0
 30 31  1  0
 30 32  1  0
 32 33  1  0
 20 21  1  0
 10 11  2  0
 11 12  1  0
 13 15  1  0
 15 14  2  0
 14 10  1  0
  1  2  2  0
  2  5  1  0
  5  6  2  0
  6  4  1  0
  4  3  2  0
  3  1  1  0
 12 13  2  0
 13 16  1  0
 16 17  2  0
 17 18  1  0
 18 19  2  0
 19 12  1  0
 21 22  2  0
 22 23  1  0
 23 24  2  0
 24 25  1  0
 25 26  2  0
 26 21  1  0
M  END
$$$$
