No_5287-complexes_sdf/6BKW-FPZ/2024-09-17-14-21-01/
     RDKit          3D

 13 14  0  0  0  0  0  0  0  0999 V2000
   -7.9040    3.9820   27.1177 C   0  0  0  0  0  0  0  0  0  0  0  0
   -7.8663    4.8694   27.9238 C   0  0  0  0  0  0  0  0  0  0  0  0
   -7.4547    2.7080   27.4594 C   0  0  0  0  0  0  0  0  0  0  0  0
   -8.0927    6.2909   27.5184 C   0  0  0  0  0  0  0  0  0  0  0  0
   -9.0048    6.5903   26.4798 C   0  0  0  0  0  0  0  0  0  0  0  0
   -7.2183    1.6452   26.8745 C   0  0  0  0  0  0  0  0  0  0  0  0
   -6.6639    0.4792   27.3848 C   0  0  0  0  0  0  0  0  0  0  0  0
   -9.2453    5.4389   25.6479 C   0  0  0  0  0  0  0  0  0  0  0  0
   -8.7502    4.1243   25.9455 C   0  0  0  0  0  0  0  0  0  0  0  0
   -7.1851   -0.7317   27.2370 C   0  0  0  0  0  0  0  0  0  0  0  0
   -8.1960   -0.8976   26.3069 C   0  0  0  0  0  0  0  0  0  0  0  0
   -8.8863    0.1733   25.7719 C   0  0  0  0  0  0  0  0  0  0  0  0
   -8.0877    1.2760   25.8179 C   0  0  0  0  0  0  0  0  0  0  0  0
  1  3  1  0
  3  6  1  0
  1  2  2  0
  2  4  1  0
  4  5  2  0
  5  8  1  0
  8  9  2  0
  9  1  1  0
  6  7  2  0
  7 10  1  0
 10 11  2  0
 11 12  1  0
 12 13  2  0
 13  6  1  0
M  END
$$$$
