No_5072-complexes_sdf/6BKW-FPZ/2024-09-17-14-21-01/
     RDKit          3D

 18 19  0  0  0  0  0  0  0  0999 V2000
   -7.9040    3.9820   27.1177 C   0  0  0  0  0  0  0  0  0  0  0  0
   -9.0711    4.3164   27.0630 C   0  0  0  0  0  0  0  0  0  0  0  0
   -9.5294    5.4517   27.7215 C   0  0  0  0  0  0  0  0  0  0  0  0
   -6.9328    4.7309   27.8881 C   0  0  0  0  0  0  0  0  0  0  0  0
   -7.3666    5.8455   28.5488 C   0  0  0  0  0  0  0  0  0  0  0  0
   -8.6669    6.2428   28.4199 C   0  0  0  0  0  0  0  0  0  0  0  0
   -9.9775    3.4523   26.2361 C   0  0  0  0  0  0  0  0  0  0  0  0
  -10.4531    3.8385   25.1977 N   0  0  0  0  0  0  0  0  0  0  0  0
  -11.1954    3.1071   24.3236 C   0  0  0  0  0  0  0  0  0  0  0  0
  -11.0587    2.7522   26.9637 C   0  0  0  0  0  0  0  0  0  0  0  0
  -12.2616    2.5328   24.9362 C   0  0  0  0  0  0  0  0  0  0  0  0
  -10.7592    2.1906   28.3132 C   0  0  0  0  0  0  0  0  0  0  0  0
  -12.4445    2.8550   26.7346 C   0  0  0  0  0  0  0  0  0  0  0  0
  -11.0896    3.1712   22.9258 C   0  0  0  0  0  0  0  0  0  0  0  0
  -11.9754    3.0195   22.0562 C   0  0  0  0  0  0  0  0  0  0  0  0
  -11.7201    3.0217   20.6513 C   0  0  0  0  0  0  0  0  0  0  0  0
  -10.3534    3.2062   20.1948 C   0  0  0  0  0  0  0  0  0  0  0  0
   -9.3800    3.3664   21.1640 C   0  0  0  0  0  0  0  0  0  0  0  0
  2  7  1  0
 10 12  1  0
  9 14  1  0
 14 15  2  3
 15 16  1  0
 16 17  2  3
 17 18  1  0
  7  8  2  0
  8  9  1  0
  9 11  2  0
 11 13  1  0
 13 10  2  0
 10  7  1  0
  1  2  2  0
  2  3  1  0
  3  6  2  0
  6  5  1  0
  5  4  2  0
  4  1  1  0
M  END
$$$$
