No_5069-complexes_sdf/6BKW-FPZ/2024-09-17-14-21-01/
     RDKit          3D

 29 30  0  0  0  0  0  0  0  0999 V2000
   -7.2496    3.8871   27.4508 C   0  0  0  0  0  0  0  0  0  0  0  0
   -7.6161    2.7143   27.1523 C   0  0  0  0  0  0  0  0  0  0  0  0
   -8.6212    2.2239   26.4073 C   0  0  0  0  0  0  0  0  0  0  0  0
   -8.2540    4.9237   27.1711 C   0  0  0  0  0  0  0  0  0  0  0  0
   -8.0481    6.2918   27.4896 C   0  0  0  0  0  0  0  0  0  0  0  0
   -9.5812    3.2431   26.0960 C   0  0  0  0  0  0  0  0  0  0  0  0
   -9.3651    4.5697   26.4537 C   0  0  0  0  0  0  0  0  0  0  0  0
   -8.9398    7.2470   27.1255 N   0  0  0  0  0  0  0  0  0  0  0  0
   -8.8365    0.8595   26.0844 C   0  0  0  0  0  0  0  0  0  0  0  0
   -8.3584    0.5941   25.0369 F   0  0  0  0  0  0  0  0  0  0  0  0
   -8.2047    0.1031   27.0089 F   0  0  0  0  0  0  0  0  0  0  0  0
  -10.1286    0.5582   26.1144 F   0  0  0  0  0  0  0  0  0  0  0  0
   -6.9267    6.6283   28.0832 O   0  0  0  0  0  0  0  0  0  0  0  0
  -10.6188    2.9313   25.3510 O   0  0  0  0  0  0  0  0  0  0  0  0
  -11.7484    3.6150   25.4542 C   0  0  0  0  0  0  0  0  0  0  0  0
  -12.5313    3.2931   26.5660 C   0  0  1  0  0  0  0  0  0  0  0  0
  -13.5453    4.0201   26.9150 C   0  0  0  0  0  0  0  0  0  0  0  0
  -14.5264    3.9195   27.1931 C   0  0  0  0  0  0  0  0  0  0  0  0
  -15.5986    4.9504   27.6463 C   0  0  0  0  0  0  0  0  0  0  0  0
  -15.0531    6.1852   27.7721 C   0  0  0  0  0  0  0  0  0  0  0  0
  -13.7327    6.4339   27.6006 C   0  0  0  0  0  0  0  0  0  0  0  0
  -12.9142    5.5053   27.2954 C   0  0  0  0  0  0  0  0  0  0  0  0
  -15.9110    7.2140   28.2071 F   0  0  0  0  0  0  0  0  0  0  0  0
  -12.4893    1.9876   27.1744 C   0  0  0  0  0  0  0  0  0  0  0  0
  -13.3500    0.9807   26.7817 C   0  0  0  0  0  0  0  0  0  0  0  0
  -13.6739    0.2330   27.4329 C   0  0  0  0  0  0  0  0  0  0  0  0
  -14.5923   -0.9005   27.0595 C   0  0  0  0  0  0  0  0  0  0  0  0
  -14.9176   -0.9206   25.7209 C   0  0  0  0  0  0  0  0  0  0  0  0
  -14.4708    0.0670   24.8758 C   0  0  0  0  0  0  0  0  0  0  0  0
  4  5  1  0
  5  8  1  0
  3  9  1  0
  9 10  1  0
  9 11  1  0
  9 12  1  0
  5 13  2  0
  6 14  1  0
 14 15  1  0
 16 15  1  6
 20 23  1  0
 16 24  1  0
 24 25  2  3
 25 26  1  0
 26 27  2  3
 27 28  1  0
 28 29  2  0
 16 17  1  0
  1  2  2  0
  2  3  1  0
  3  6  2  0
  6  7  1  0
  7  4  2  0
  4  1  1  0
 17 18  2  0
 18 19  1  0
 19 20  2  0
 20 21  1  0
 21 22  2  0
 22 17  1  0
M  END
$$$$
