No_5464-complexes_sdf/6BKW-FPZ/2024-09-17-14-21-01/
     RDKit          3D

 40 44  0  0  0  0  0  0  0  0999 V2000
   -7.7129    4.2099   27.0854 C   0  0  0  0  0  0  0  0  0  0  0  0
   -7.7814    5.1722   27.8972 C   0  0  0  0  0  0  0  0  0  0  0  0
   -8.8255    3.2789   27.1191 C   0  0  0  0  0  0  0  0  0  0  0  0
   -9.9209    3.4734   27.9101 C   0  0  0  0  0  0  0  0  0  0  0  0
   -9.9736    4.7085   28.6831 C   0  0  0  0  0  0  0  0  0  0  0  0
   -8.8840    5.5441   28.6612 C   0  0  0  0  0  0  0  0  0  0  0  0
   -8.7102    2.0171   26.3293 C   0  0  0  0  0  0  0  0  0  0  0  0
   -7.9282    0.9441   26.6637 C   0  0  0  0  0  0  0  0  0  0  0  0
   -7.8515   -0.1870   25.9086 C   0  0  0  0  0  0  0  0  0  0  0  0
   -9.3550    1.9986   25.1033 C   0  0  0  0  0  0  0  0  0  0  0  0
   -9.2585    0.9008   24.2417 C   0  0  0  0  0  0  0  0  0  0  0  0
   -8.4865   -0.1773   24.6546 C   0  0  0  0  0  0  0  0  0  0  0  0
  -11.2552    2.4675   27.9523 Cl  0  0  0  0  0  0  0  0  0  0  0  0
   -9.9918    0.9177   22.7244 Cl  0  0  0  0  0  0  0  0  0  0  0  0
   -7.0577   -1.3579   26.3222 C   0  0  0  0  0  0  0  0  0  0  0  0
   -7.0293   -2.3770   25.7880 C   0  0  0  0  0  0  0  0  0  0  0  0
   -6.2374   -3.5503   26.2232 C   0  0  0  0  0  0  0  0  0  0  0  0
   -5.5338   -3.3862   27.4243 C   0  0  0  0  0  0  0  0  0  0  0  0
   -5.5978   -2.2125   28.1260 C   0  0  0  0  0  0  0  0  0  0  0  0
   -6.3305   -1.1625   27.6684 C   0  0  0  0  0  0  0  0  0  0  0  0
   -4.8945   -2.0520   29.4396 C   0  0  0  0  0  0  0  0  0  0  0  0
   -5.6059   -2.2141   30.5959 C   0  0  0  0  0  0  0  0  0  0  0  0
   -5.2600   -1.8647   31.7512 C   0  0  0  0  0  0  0  0  0  0  0  0
   -3.9623   -1.1871   31.9876 C   0  0  0  0  0  0  0  0  0  0  0  0
   -3.2200   -0.9834   30.8074 C   0  0  0  0  0  0  0  0  0  0  0  0
   -3.7234   -1.2636   29.5618 C   0  0  0  0  0  0  0  0  0  0  0  0
   -2.8722   -0.9211   28.4306 C   0  0  0  0  0  0  0  0  0  0  0  0
   -2.0932   -0.6861   27.7803 C   0  0  0  0  0  0  0  0  0  0  0  0
   -1.3828   -0.1750   26.6242 C   0  0  0  0  0  0  0  0  0  0  0  0
   -6.0569   -2.0686   33.0581 C   0  0  0  0  0  0  0  0  0  0  0  0
   -7.3402   -2.2272   32.8708 N   0  0  0  0  0  0  0  0  0  0  0  0
   -7.9036   -3.4844   32.8260 C   0  0  0  0  0  0  0  0  0  0  0  0
   -9.2759   -3.5768   32.4773 C   0  0  0  0  0  0  0  0  0  0  0  0
   -9.5618   -4.3414   31.4321 C   0  0  0  0  0  0  0  0  0  0  0  0
  -10.5219   -3.8798   30.5414 C   0  0  0  0  0  0  0  0  0  0  0  0
  -11.4686   -2.8746   30.9054 C   0  0  0  0  0  0  0  0  0  0  0  0
  -11.2266   -2.1963   32.1045 C   0  0  0  0  0  0  0  0  0  0  0  0
  -10.1320   -2.4574   32.7907 C   0  0  0  0  0  0  0  0  0  0  0  0
   -7.2881   -4.4697   33.1419 O   0  0  0  0  0  0  0  0  0  0  0  0
   -2.2995    0.6749   25.8661 C   0  0  0  0  0  0  0  0  0  0  0  0
  3  7  1  0
  4 13  1  0
 11 14  1  0
  9 15  1  0
 19 21  1  0
 26 27  1  0
 27 28  3  0
 28 29  1  0
 23 30  1  0
 30 31  1  0
 31 32  1  0
 32 33  1  0
 32 39  2  0
 29 40  1  0
 15 16  2  0
 16 17  1  0
 17 18  2  0
 18 19  1  0
 19 20  2  0
 20 15  1  0
 33 34  2  0
 34 35  1  0
 35 36  2  0
 36 37  1  0
 37 38  2  0
 38 33  1  0
  7  8  2  0
  8  9  1  0
  9 12  2  0
 12 11  1  0
 11 10  2  0
 10  7  1  0
  1  2  2  0
  2  6  1  0
  6  5  2  0
  5  4  1  0
  4  3  2  0
  3  1  1  0
 21 22  2  0
 22 23  1  0
 23 24  2  0
 24 25  1  0
 25 26  2  0
 26 21  1  0
M  END
$$$$
