No_5268-complexes_sdf/6BKW-FPZ/2024-09-17-14-21-01/
     RDKit          3D

 22 24  0  0  0  0  0  0  0  0999 V2000
   -7.9040    3.9820   27.1177 C   0  0  0  0  0  0  0  0  0  0  0  0
   -7.8663    4.8694   27.9238 C   0  0  0  0  0  0  0  0  0  0  0  0
   -7.4698    2.6989   27.4277 C   0  0  0  0  0  0  0  0  0  0  0  0
   -7.9683    1.5964   26.8266 C   0  0  0  0  0  0  0  0  0  0  0  0
   -8.9447    1.7923   25.8533 C   0  0  0  0  0  0  0  0  0  0  0  0
   -9.4405    2.9988   25.5757 C   0  0  0  0  0  0  0  0  0  0  0  0
   -8.9424    4.1117   26.2388 C   0  0  0  0  0  0  0  0  0  0  0  0
   -8.3103    6.1970   27.6444 N   0  0  0  0  0  0  0  0  0  0  0  0
   -9.2017    6.5264   26.7040 C   0  0  0  0  0  0  0  0  0  0  0  0
   -9.5492    5.4018   25.9329 C   0  0  0  0  0  0  0  0  0  0  0  0
   -7.3783    0.2539   27.0964 C   0  0  1  0  0  0  0  0  0  0  0  0
   -8.1457   -0.8105   27.2555 C   0  0  0  0  0  0  0  0  0  0  0  0
   -9.3444   -0.8616   27.1506 C   0  0  0  0  0  0  0  0  0  0  0  0
  -10.1891   -2.0445   27.3874 C   0  0  0  0  0  0  0  0  0  0  0  0
   -9.4754   -3.1161   27.7681 C   0  0  0  0  0  0  0  0  0  0  0  0
   -7.6186   -2.0706   27.8371 C   0  0  0  0  0  0  0  0  0  0  0  0
   -8.2400   -3.1667   28.0522 C   0  0  0  0  0  0  0  0  0  0  0  0
   -5.8927    0.1806   27.1039 C   0  0  0  0  0  0  0  0  0  0  0  0
  -10.4372    3.0927   24.4924 C   0  0  0  0  0  0  0  0  0  0  0  0
  -10.3711    2.5659   23.4811 O   0  0  0  0  0  0  0  0  0  0  0  0
  -11.2181    4.2147   24.5093 O   0  0  0  0  0  0  0  0  0  0  0  0
   -5.1440    0.9136   26.6236 O   0  0  0  0  0  0  0  0  0  0  0  0
  4 11  1  0
 11 12  1  0
 11 18  1  6
  6 19  1  0
 19 20  2  0
 19 21  1  0
 18 22  2  0
 12 13  2  0
 13 14  1  0
 14 15  2  0
 15 17  1  0
 17 16  2  0
 16 12  1  0
  1  2  2  0
  2  8  1  0
  8  9  2  0
  9 10  1  0
 10  7  2  0
  1  3  1  0
  3  4  2  0
  4  5  1  0
  5  6  2  0
  6  7  1  0
  7  1  1  0
M  END
$$$$
