No_5781-complexes_sdf/6BKW-FPZ/2024-09-17-14-21-01/
     RDKit          3D

 16 17  0  0  0  0  0  0  0  0999 V2000
   -7.7129    4.2099   27.0854 C   0  0  0  0  0  0  0  0  0  0  0  0
   -7.7814    5.1722   27.8972 C   0  0  0  0  0  0  0  0  0  0  0  0
   -8.7889    3.2468   27.2220 C   0  0  1  0  0  0  0  0  0  0  0  0
   -9.8367    3.4196   26.6050 C   0  0  2  0  0  0  0  0  0  0  0  0
   -8.9219    6.1622   27.4561 C   0  0  0  0  0  0  0  0  0  0  0  0
  -10.6517    4.6657   26.7587 C   0  0  0  0  0  0  0  0  0  0  0  0
  -10.2588    5.7455   27.6012 C   0  0  0  0  0  0  0  0  0  0  0  0
  -10.6214    2.3603   26.0856 C   0  0  0  0  0  0  0  0  0  0  0  0
  -11.2784    2.0665   25.3104 C   0  0  0  0  0  0  0  0  0  0  0  0
  -11.8598    0.9118   24.8968 C   0  0  0  0  0  0  0  0  0  0  0  0
  -11.4922   -0.1849   25.6788 C   0  0  0  0  0  0  0  0  0  0  0  0
  -10.6454   -0.0665   26.7517 C   0  0  0  0  0  0  0  0  0  0  0  0
  -10.1111    1.1899   27.0636 C   0  0  0  0  0  0  0  0  0  0  0  0
   -8.3092    1.7591   26.9893 C   0  0  0  0  0  0  0  0  0  0  0  0
   -7.7588    1.3102   25.7479 C   0  0  0  0  0  0  0  0  0  0  0  0
   -7.5849    1.0915   28.2315 C   0  0  0  0  0  0  0  0  0  0  0  0
  1  2  1  0
  1  3  1  0
  3  4  1  0
  2  5  1  0
  4  6  1  0
  5  7  1  0
  6  7  1  0
  4  8  1  1
  3 14  1  6
 14 15  1  0
 14 16  1  0
  8  9  2  0
  9 10  1  0
 10 11  2  0
 11 12  1  0
 12 13  2  0
 13  8  1  0
M  END
$$$$
