No_5383-complexes_sdf/6BKW-FPZ/2024-09-17-14-21-01/
     RDKit          3D

 17 18  0  0  0  0  0  0  0  0999 V2000
   -7.9040    3.9820   27.1177 C   0  0  0  0  0  0  0  0  0  0  0  0
   -7.8663    4.8694   27.9238 C   0  0  0  0  0  0  0  0  0  0  0  0
   -9.0501    3.8017   26.2617 C   0  0  0  0  0  0  0  0  0  0  0  0
   -9.1826    2.7026   25.3575 C   0  0  0  0  0  0  0  0  0  0  0  0
   -8.6241    6.0053   27.5974 C   0  0  0  0  0  0  0  0  0  0  0  0
   -9.6577    6.0523   26.7101 C   0  0  0  0  0  0  0  0  0  0  0  0
   -9.7428    4.9359   25.9518 C   0  0  0  0  0  0  0  0  0  0  0  0
  -10.0705    1.8663   25.7848 C   0  0  0  0  0  0  0  0  0  0  0  0
  -10.1063    0.6771   25.1376 C   0  0  0  0  0  0  0  0  0  0  0  0
  -11.0089   -0.3660   25.6078 C   0  0  0  0  0  0  0  0  0  0  0  0
  -11.7800   -0.1107   26.7481 C   0  0  0  0  0  0  0  0  0  0  0  0
  -11.6448    1.0845   27.4294 C   0  0  0  0  0  0  0  0  0  0  0  0
  -10.7541    2.0631   27.0261 C   0  0  0  0  0  0  0  0  0  0  0  0
   -7.0918    2.6952   27.4086 C   0  0  0  0  0  0  0  0  0  0  0  0
   -7.4562    1.4940   27.5930 N   0  0  0  0  0  0  0  0  0  0  0  0
   -6.5692    0.4925   27.8024 C   0  0  0  0  0  0  0  0  0  0  0  0
   -6.8345   -0.9004   27.8556 C   0  0  0  0  0  0  0  0  0  0  0  0
  3  4  1  0
  4  8  1  0
  1 14  1  0
 14 15  1  0
 15 16  2  3
 16 17  1  0
  8  9  2  0
  9 10  1  0
 10 11  2  0
 11 12  1  0
 12 13  2  0
 13  8  1  0
  1  2  2  0
  2  5  1  0
  5  6  2  0
  6  7  1  0
  7  3  2  0
  3  1  1  0
M  END
$$$$
