No_5127-complexes_sdf/6BKW-FPZ/2024-09-17-14-21-01/
     RDKit          3D

 28 32  0  0  0  0  0  0  0  0999 V2000
   -7.7129    4.2099   27.0854 C   0  0  0  0  0  0  0  0  0  0  0  0
   -7.7814    5.1722   27.8972 C   0  0  1  0  0  0  0  0  0  0  0  0
   -8.7889    3.2468   27.2220 C   0  0  2  0  0  0  0  0  0  0  0  0
   -8.5940    1.9755   26.6525 C   0  0  0  0  0  0  0  0  0  0  0  0
   -7.5537    1.2112   27.0910 C   0  0  0  0  0  0  0  0  0  0  0  0
   -6.7488    6.0202   28.0379 N   0  0  0  0  0  0  0  0  0  0  0  0
   -9.9729    3.6673   27.8529 C   0  0  1  0  0  0  0  0  0  0  0  0
   -7.3973   -0.1209   26.6907 C   0  0  0  0  0  0  0  0  0  0  0  0
  -11.0947    2.7657   28.0395 C   0  0  0  0  0  0  0  0  0  0  0  0
   -8.3556   -0.6253   25.8614 C   0  0  0  0  0  0  0  0  0  0  0  0
   -9.4549    0.1302   25.4567 C   0  0  0  0  0  0  0  0  0  0  0  0
   -9.5725    1.4182   25.9067 C   0  0  0  0  0  0  0  0  0  0  0  0
  -12.3039    3.2655   27.9561 C   0  0  0  0  0  0  0  0  0  0  0  0
  -12.8595    3.3698   26.8423 C   0  0  0  0  0  0  0  0  0  0  0  0
  -12.1920    3.1134   25.6676 C   0  0  2  0  0  0  0  0  0  0  0  0
  -12.7141    3.3874   24.3406 C   0  0  0  0  0  0  0  0  0  0  0  0
   -8.8869    5.5153   28.6081 N   0  0  0  0  0  0  0  0  0  0  0  0
   -9.9438    4.8265   28.6386 C   0  0  0  0  0  0  0  0  0  0  0  0
  -11.8268    3.5129   23.2804 C   0  0  0  0  0  0  0  0  0  0  0  0
  -10.4471    3.3714   23.4846 C   0  0  0  0  0  0  0  0  0  0  0  0
   -9.9228    3.3848   24.7718 C   0  0  0  0  0  0  0  0  0  0  0  0
  -10.6318    2.2766   25.4931 N   0  0  0  0  0  0  0  0  0  0  0  0
  -10.4964   -0.4211   24.5821 C   0  0  0  0  0  0  0  0  0  0  0  0
  -10.4968   -0.2162   23.3286 C   0  0  0  0  0  0  0  0  0  0  0  0
  -11.5909   -1.0600   25.2381 C   0  0  0  0  0  0  0  0  0  0  0  0
  -11.5017   -0.5084   22.4370 C   0  0  0  0  0  0  0  0  0  0  0  0
  -12.6881   -1.4144   24.3825 C   0  0  0  0  0  0  0  0  0  0  0  0
  -12.6089   -1.1490   23.0126 C   0  0  0  0  0  0  0  0  0  0  0  0
  1  2  1  0
  3  1  1  6
  3  4  1  0
  2  6  1  6
  3  7  1  0
  7  9  1  1
  9 13  1  0
 13 14  2  3
 14 15  1  0
  2 17  1  0
  7 18  1  0
 17 18  1  0
 16 19  1  0
 20 21  1  0
 12 22  1  0
 15 22  1  0
 21 22  1  0
 11 23  1  0
 15 16  1  6
 19 20  1  0
  4  5  2  0
  5  8  1  0
  8 10  2  0
 10 11  1  0
 11 12  2  0
 12  4  1  0
 23 24  2  0
 24 26  1  0
 26 28  2  0
 28 27  1  0
 27 25  2  0
 25 23  1  0
M  END
$$$$
