No_5412-complexes_sdf/6BKW-FPZ/2024-09-17-14-21-01/
     RDKit          3D

 27 30  0  0  0  0  0  0  0  0999 V2000
   -7.7129    4.2099   27.0854 C   0  0  0  0  0  0  0  0  0  0  0  0
   -7.7814    5.1722   27.8972 C   0  0  0  0  0  0  0  0  0  0  0  0
   -8.8776    3.8408   26.3416 C   0  0  0  0  0  0  0  0  0  0  0  0
   -9.9844    4.6492   26.4743 C   0  0  0  0  0  0  0  0  0  0  0  0
   -8.8033    6.1375   27.8728 C   0  0  0  0  0  0  0  0  0  0  0  0
   -9.9554    5.8280   27.1737 C   0  0  0  0  0  0  0  0  0  0  0  0
   -8.8740    2.6184   25.5584 C   0  0  0  0  0  0  0  0  0  0  0  0
   -8.2606    1.4639   26.1340 C   0  0  0  0  0  0  0  0  0  0  0  0
   -8.0974    0.3133   25.4314 C   0  0  0  0  0  0  0  0  0  0  0  0
   -8.6927    0.2987   24.1504 C   0  0  0  0  0  0  0  0  0  0  0  0
   -9.3500    1.3892   23.5796 C   0  0  0  0  0  0  0  0  0  0  0  0
   -9.3799    2.5644   24.2974 C   0  0  0  0  0  0  0  0  0  0  0  0
   -9.8862    1.3472   22.2459 C   0  0  0  0  0  0  0  0  0  0  0  0
  -10.3608    2.4933   21.7112 C   0  0  0  0  0  0  0  0  0  0  0  0
  -10.5088    3.6478   22.5537 C   0  0  0  0  0  0  0  0  0  0  0  0
  -10.0261    3.7343   23.7706 C   0  0  0  0  0  0  0  0  0  0  0  0
  -11.2126    4.8346   21.9219 C   0  0  0  0  0  0  0  0  0  0  0  0
   -6.6834    5.6029   28.6341 O   0  0  0  0  0  0  0  0  0  0  0  0
   -7.4620   -0.8557   25.9902 C   0  0  0  0  0  0  0  0  0  0  0  0
   -7.7705   -1.2366   27.2507 C   0  0  0  0  0  0  0  0  0  0  0  0
   -6.8614   -1.7392   28.0141 C   0  0  0  0  0  0  0  0  0  0  0  0
   -7.0544   -1.9365   29.4937 C   0  0  0  0  0  0  0  0  0  0  0  0
   -8.4224   -2.1316   29.8763 C   0  0  0  0  0  0  0  0  0  0  0  0
   -9.4406   -1.7453   28.9598 C   0  0  0  0  0  0  0  0  0  0  0  0
   -9.1405   -1.2603   27.6559 C   0  0  0  0  0  0  0  0  0  0  0  0
   -6.5099   -1.5072   25.1939 C   0  0  0  0  0  0  0  0  0  0  0  0
   -5.2447   -1.0161   25.1945 C   0  0  0  0  0  0  0  0  0  0  0  0
  3  7  1  0
 15 17  1  0
  2 18  1  0
  9 19  1  0
 19 20  1  0
 19 26  1  0
 26 27  2  0
 20 21  2  0
 21 22  1  0
 22 23  2  0
 23 24  1  0
 24 25  2  0
 25 20  1  0
 12 16  2  0
 16 15  1  0
 15 14  2  0
 14 13  1  0
 13 11  2  0
  1  2  2  0
  2  5  1  0
  5  6  2  0
  6  4  1  0
  4  3  2  0
  3  1  1  0
  7  8  2  0
  8  9  1  0
  9 10  2  0
 10 11  1  0
 11 12  1  0
 12  7  1  0
M  END
$$$$
