No_5684-complexes_sdf/6BKW-FPZ/2024-09-17-14-21-01/
     RDKit          3D

 23 25  0  0  0  0  0  0  0  0999 V2000
   -7.7129    4.2099   27.0854 C   0  0  0  0  0  0  0  0  0  0  0  0
   -8.2112    3.0637   26.9225 C   0  0  0  0  0  0  0  0  0  0  0  0
   -8.5108    5.3904   26.9436 C   0  0  0  0  0  0  0  0  0  0  0  0
   -9.7256    5.1955   26.3518 C   0  0  0  0  0  0  0  0  0  0  0  0
   -9.4995    2.8258   26.4878 C   0  0  0  0  0  0  0  0  0  0  0  0
  -10.2542    3.9691   26.2055 C   0  0  0  0  0  0  0  0  0  0  0  0
   -7.9470    6.5632   27.1671 F   0  0  0  0  0  0  0  0  0  0  0  0
   -7.5877    1.7085   27.2215 C   0  0  0  0  0  0  0  0  0  0  0  0
   -6.2029    1.7570   27.6362 C   0  0  0  0  0  0  0  0  0  0  0  0
   -5.5487    0.5567   27.9140 C   0  0  0  0  0  0  0  0  0  0  0  0
   -6.1903   -0.6339   27.8983 C   0  0  0  0  0  0  0  0  0  0  0  0
   -8.2005    0.4828   27.1506 C   0  0  0  0  0  0  0  0  0  0  0  0
   -7.5455   -0.6671   27.5293 C   0  0  0  0  0  0  0  0  0  0  0  0
   -4.1415    0.4385   28.3893 C   0  0  0  0  0  0  0  0  0  0  0  0
   -3.5403    1.5485   28.2467 F   0  0  0  0  0  0  0  0  0  0  0  0
   -3.5989   -0.5375   28.7367 F   0  0  0  0  0  0  0  0  0  0  0  0
  -11.6110    3.8704   25.6025 C   0  0  0  0  0  0  0  0  0  0  0  0
  -12.1792    2.8006   25.2759 C   0  0  0  0  0  0  0  0  0  0  0  0
  -13.4754    2.7561   24.7048 C   0  0  0  0  0  0  0  0  0  0  0  0
  -14.1012    1.6078   24.3655 C   0  0  0  0  0  0  0  0  0  0  0  0
  -13.3856    0.4192   24.5300 C   0  0  0  0  0  0  0  0  0  0  0  0
  -12.1270    0.3762   25.0264 C   0  0  0  0  0  0  0  0  0  0  0  0
  -11.5144    1.5938   25.3884 C   0  0  0  0  0  0  0  0  0  0  0  0
  3  7  1  0
  2  8  1  0
 10 14  1  0
 14 15  1  0
 14 16  1  0
  6 17  1  0
 17 18  1  0
 18 19  2  0
 19 20  1  0
 20 21  2  0
 21 22  1  0
 22 23  2  0
 23 18  1  0
  1  2  2  0
  2  5  1  0
  5  6  2  0
  6  4  1  0
  4  3  2  0
  3  1  1  0
  8  9  2  0
  9 10  1  0
 10 11  2  0
 11 13  1  0
 13 12  2  0
 12  8  1  0
M  END
$$$$
