No_5162-complexes_sdf/6BKW-FPZ/2024-09-17-14-21-01/
     RDKit          3D

 19 20  0  0  0  0  0  0  0  0999 V2000
   -7.9040    3.9820   27.1177 C   0  0  0  0  0  0  0  0  0  0  0  0
   -7.8663    4.8694   27.9238 C   0  0  0  0  0  0  0  0  0  0  0  0
   -9.0501    3.8017   26.2617 C   0  0  0  0  0  0  0  0  0  0  0  0
   -9.1826    2.7026   25.3575 C   0  0  0  0  0  0  0  0  0  0  0  0
   -8.6940    6.0131   27.8614 C   0  0  0  0  0  0  0  0  0  0  0  0
   -9.9755    4.8547   26.2361 C   0  0  0  0  0  0  0  0  0  0  0  0
   -9.7463    5.9398   27.0364 C   0  0  0  0  0  0  0  0  0  0  0  0
  -10.0731    2.0066   25.4815 N   0  0  0  0  0  0  0  0  0  0  0  0
  -10.2581    0.8863   24.9059 C   0  0  0  0  0  0  0  0  0  0  0  0
  -11.3611    0.0822   25.1480 C   0  0  0  0  0  0  0  0  0  0  0  0
   -9.3201    0.3305   23.9000 C   0  0  0  0  0  0  0  0  0  0  0  0
   -9.5136   -0.8541   23.2275 C   0  0  0  0  0  0  0  0  0  0  0  0
  -11.5450   -1.1587   24.4741 C   0  0  0  0  0  0  0  0  0  0  0  0
  -10.6099   -1.5996   23.5300 C   0  0  0  0  0  0  0  0  0  0  0  0
  -11.2204    2.3555   26.3197 C   0  0  0  0  0  0  0  0  0  0  0  0
  -11.4649    1.9208   27.5558 C   0  0  0  0  0  0  0  0  0  0  0  0
  -12.2517    2.4456   28.5179 C   0  0  0  0  0  0  0  0  0  0  0  0
  -12.3385    1.9553   29.8473 C   0  0  0  0  0  0  0  0  0  0  0  0
  -13.2440    2.6647   30.6629 C   0  0  0  0  0  0  0  0  0  0  0  0
  3  4  1  0
  4  8  1  0
  8  9  1  0
  8 15  1  0
 15 16  1  0
 16 17  2  3
 17 18  1  0
 18 19  2  0
  9 10  2  0
 10 13  1  0
 13 14  2  0
 14 12  1  0
 12 11  2  0
 11  9  1  0
  1  2  2  0
  2  5  1  0
  5  7  2  0
  7  6  1  0
  6  3  2  0
  3  1  1  0
M  END
$$$$
