No_5049-complexes_sdf/6BKW-FPZ/2024-09-17-14-21-01/
     RDKit          3D

 20 22  0  0  0  0  0  0  0  0999 V2000
   -7.2496    3.8871   27.4508 C   0  0  0  0  0  0  0  0  0  0  0  0
   -7.6161    2.7143   27.1523 C   0  0  0  0  0  0  0  0  0  0  0  0
   -7.1619    1.8631   27.5232 C   0  0  0  0  0  0  0  0  0  0  0  0
   -8.0036    5.1085   27.2100 C   0  0  0  0  0  0  0  0  0  0  0  0
   -9.0764    5.1562   26.4023 C   0  0  0  0  0  0  0  0  0  0  0  0
   -9.5423    3.9741   25.8512 C   0  0  0  0  0  0  0  0  0  0  0  0
   -8.8464    2.7352   26.2619 C   0  0  0  0  0  0  0  0  0  0  0  0
   -7.5746    0.4315   27.2994 C   0  0  0  0  0  0  0  0  0  0  0  0
   -8.7724    0.3254   26.5753 C   0  0  0  0  0  0  0  0  0  0  0  0
   -9.4214    1.4876   25.9818 C   0  0  0  0  0  0  0  0  0  0  0  0
   -7.4545    6.4163   27.8251 C   0  0  0  0  0  0  0  0  0  0  0  0
  -10.6026    3.9360   24.9125 C   0  0  0  0  0  0  0  0  0  0  0  0
  -11.8247    3.7993   25.3234 N   0  0  0  0  0  0  0  0  0  0  0  0
  -12.9420    3.7627   24.5836 C   0  0  0  0  0  0  0  0  0  0  0  0
  -10.3399    4.0135   23.7041 O   0  0  0  0  0  0  0  0  0  0  0  0
  -13.6739    2.5503   24.6584 C   0  0  0  0  0  0  0  0  0  0  0  0
  -14.5997    2.3382   23.9071 C   0  0  0  0  0  0  0  0  0  0  0  0
  -15.1232    3.3753   22.9845 C   0  0  0  0  0  0  0  0  0  0  0  0
  -14.4309    4.5826   22.9289 C   0  0  0  0  0  0  0  0  0  0  0  0
  -13.2797    4.8103   23.7520 C   0  0  0  0  0  0  0  0  0  0  0  0
  4 11  1  0
  6 12  1  0
 12 13  1  0
 13 14  1  0
 12 15  2  0
 14 16  2  0
 16 17  1  0
 17 18  2  0
 18 19  1  0
 19 20  2  0
 20 14  1  0
  1  2  2  0
  7  6  2  0
  6  5  1  0
  5  4  2  0
  4  1  1  0
  2  3  1  0
  3  8  2  0
  8  9  1  0
  9 10  2  0
 10  7  1  0
  7  2  1  0
M  END
$$$$
