No_518-complexes_sdf/6BKW-FPZ/2024-09-17-14-21-01/
     RDKit          3D

 18 19  0  0  0  0  0  0  0  0999 V2000
   -7.9040    3.9820   27.1177 C   0  0  0  0  0  0  0  0  0  0  0  0
   -8.2057    2.8231   26.8733 C   0  0  0  0  0  0  0  0  0  0  0  0
   -9.2962    2.4021   26.1155 C   0  0  0  0  0  0  0  0  0  0  0  0
   -8.7358    5.0662   26.5917 C   0  0  0  0  0  0  0  0  0  0  0  0
   -9.7618    4.7023   25.7546 C   0  0  0  0  0  0  0  0  0  0  0  0
  -10.0066    3.4105   25.4922 C   0  0  0  0  0  0  0  0  0  0  0  0
   -8.3943    6.4760   26.8801 C   0  0  0  0  0  0  0  0  0  0  0  0
   -8.0574    7.5061   27.0291 N   0  0  0  0  0  0  0  0  0  0  0  0
   -7.3437    1.6766   27.4898 C   0  0  0  0  0  0  0  0  0  0  0  0
   -7.7180    0.4122   27.3830 N   0  0  0  0  0  0  0  0  0  0  0  0
   -6.8560   -0.5765   27.6838 C   0  0  0  0  0  0  0  0  0  0  0  0
   -5.6091   -0.1973   28.1747 C   0  0  0  0  0  0  0  0  0  0  0  0
   -5.1934    1.1474   28.2065 C   0  0  0  0  0  0  0  0  0  0  0  0
   -5.9798    2.0844   27.7679 C   0  0  0  0  0  0  0  0  0  0  0  0
   -4.6868   -1.2845   28.6730 C   0  0  0  0  0  0  0  0  0  0  0  0
   -4.9895   -2.3989   28.5810 F   0  0  0  0  0  0  0  0  0  0  0  0
   -3.4556   -1.1253   28.0841 F   0  0  0  0  0  0  0  0  0  0  0  0
   -4.4620   -1.0055   30.0280 F   0  0  0  0  0  0  0  0  0  0  0  0
  4  7  1  0
  7  8  3  0
  2  9  1  0
 12 15  1  0
 15 16  1  0
 15 17  1  0
 15 18  1  0
  1  2  2  0
  2  3  1  0
  3  6  2  0
  6  5  1  0
  5  4  2  0
  4  1  1  0
  9 10  2  0
 10 11  1  0
 11 12  2  0
 12 13  1  0
 13 14  2  0
 14  9  1  0
M  END
$$$$
