No_5558-complexes_sdf/6BKW-FPZ/2024-09-17-14-21-01/
     RDKit          3D

 21 23  0  0  0  0  0  0  0  0999 V2000
   -7.9040    3.9820   27.1177 C   0  0  0  0  0  0  0  0  0  0  0  0
   -7.8663    4.8694   27.9238 C   0  0  0  0  0  0  0  0  0  0  0  0
   -9.0501    3.8017   26.2617 C   0  0  0  0  0  0  0  0  0  0  0  0
   -9.1826    2.7026   25.3575 C   0  0  0  0  0  0  0  0  0  0  0  0
   -8.6940    6.0131   27.8614 C   0  0  0  0  0  0  0  0  0  0  0  0
   -9.7382    4.9916   26.1006 C   0  0  0  0  0  0  0  0  0  0  0  0
   -9.6356    6.0254   26.9506 C   0  0  0  0  0  0  0  0  0  0  0  0
  -10.1232    1.9086   25.7544 C   0  0  0  0  0  0  0  0  0  0  0  0
  -10.1723    0.7244   25.1057 C   0  0  0  0  0  0  0  0  0  0  0  0
   -9.0249    0.1351   24.9332 C   0  0  0  0  0  0  0  0  0  0  0  0
   -9.0007   -0.7573   23.7899 C   0  0  0  0  0  0  0  0  0  0  0  0
  -10.0946   -1.1443   23.1143 C   0  0  0  0  0  0  0  0  0  0  0  0
  -11.2551    0.2793   24.2601 C   0  0  0  0  0  0  0  0  0  0  0  0
  -11.2530   -0.5589   23.2932 C   0  0  0  0  0  0  0  0  0  0  0  0
  -11.1161    2.1269   26.7470 C   0  0  0  0  0  0  0  0  0  0  0  0
  -10.6726    2.0994   28.0623 C   0  0  0  0  0  0  0  0  0  0  0  0
  -12.4191    2.3657   26.4199 C   0  0  0  0  0  0  0  0  0  0  0  0
  -13.3748    2.5562   27.4226 C   0  0  0  0  0  0  0  0  0  0  0  0
  -11.6531    2.3488   29.1456 C   0  0  0  0  0  0  0  0  0  0  0  0
  -12.9623    2.5742   28.7865 C   0  0  0  0  0  0  0  0  0  0  0  0
   -6.8571    2.5768   27.3712 Cl  0  0  0  0  0  0  0  0  0  0  0  0
  3  4  1  0
  4  8  1  0
  8  9  1  0
  8 15  1  0
  1 21  1  0
  9 10  2  0
 10 11  1  0
 11 12  2  0
 12 14  1  0
 14 13  2  0
 13  9  1  0
  1  2  2  0
  2  5  1  0
  5  7  2  0
  7  6  1  0
  6  3  2  0
  3  1  1  0
 15 16  2  0
 16 19  1  0
 19 20  2  0
 20 18  1  0
 18 17  2  0
 17 15  1  0
M  END
$$$$
