No_5366-complexes_sdf/6BKW-FPZ/2024-09-17-14-21-01/
     RDKit          3D

 26 29  0  0  0  0  0  0  0  0999 V2000
   -7.9040    3.9820   27.1177 C   0  0  0  0  0  0  0  0  0  0  0  0
   -8.2057    2.8231   26.8733 C   0  0  0  0  0  0  0  0  0  0  0  0
   -8.7695    5.0740   26.7916 C   0  0  0  0  0  0  0  0  0  0  0  0
   -8.4337    6.4678   27.0913 C   0  0  0  0  0  0  0  0  0  0  0  0
   -9.3742    2.4311   26.2346 C   0  0  0  0  0  0  0  0  0  0  0  0
  -10.2395    3.4267   25.8887 C   0  0  0  0  0  0  0  0  0  0  0  0
   -9.9567    4.7548   26.1374 C   0  0  0  0  0  0  0  0  0  0  0  0
   -7.9839    7.5474   27.0128 N   0  0  0  0  0  0  0  0  0  0  0  0
   -7.2381    1.6824   27.2965 C   0  0  0  0  0  0  0  0  0  0  0  0
   -5.9949    2.0257   27.8673 C   0  0  0  0  0  0  0  0  0  0  0  0
   -5.1145    0.9465   28.2228 C   0  0  0  0  0  0  0  0  0  0  0  0
   -5.5195   -0.3288   28.1302 C   0  0  0  0  0  0  0  0  0  0  0  0
   -7.2780    0.2756   27.3560 C   0  0  0  0  0  0  0  0  0  0  0  0
   -6.6657   -0.6567   27.7479 C   0  0  0  0  0  0  0  0  0  0  0  0
   -4.5015   -1.3423   28.7295 C   0  0  0  0  0  0  0  0  0  0  0  0
   -3.3555   -1.1830   28.5347 C   0  0  0  0  0  0  0  0  0  0  0  0
   -2.3513   -2.1206   29.0264 C   0  0  0  0  0  0  0  0  0  0  0  0
   -2.7940   -3.1540   29.7945 C   0  0  0  0  0  0  0  0  0  0  0  0
   -4.9401   -2.3856   29.5614 C   0  0  0  0  0  0  0  0  0  0  0  0
   -4.1151   -3.2719   30.0845 C   0  0  0  0  0  0  0  0  0  0  0  0
  -11.4595    3.1174   25.1144 C   0  0  0  0  0  0  0  0  0  0  0  0
  -12.5791    2.8819   25.7684 C   0  0  0  0  0  0  0  0  0  0  0  0
  -13.7901    2.9366   25.2516 C   0  0  0  0  0  0  0  0  0  0  0  0
  -13.8843    3.0656   23.8183 C   0  0  0  0  0  0  0  0  0  0  0  0
  -11.5075    3.4691   23.7107 C   0  0  0  0  0  0  0  0  0  0  0  0
  -12.7297    3.4355   23.0793 C   0  0  0  0  0  0  0  0  0  0  0  0
  3  4  1  0
  4  8  3  0
  2  9  1  0
 12 15  1  0
  6 21  1  0
 15 16  2  0
 16 17  1  0
 17 18  2  0
 18 20  1  0
 20 19  2  0
 19 15  1  0
 21 22  2  0
 22 23  1  0
 23 24  2  0
 24 26  1  0
 26 25  2  0
 25 21  1  0
  1  2  2  0
  2  5  1  0
  5  6  2  0
  6  7  1  0
  7  3  2  0
  3  1  1  0
  9 10  2  0
 10 11  1  0
 11 12  2  0
 12 14  1  0
 14 13  2  0
 13  9  1  0
M  END
$$$$
