No_5997-complexes_sdf/6BKW-FPZ/2024-09-17-14-21-01/
     RDKit          3D

 25 27  0  0  0  0  0  0  0  0999 V2000
   -7.9040    3.9820   27.1177 C   0  0  0  0  0  0  0  0  0  0  0  0
   -7.8663    4.8694   27.9238 C   0  0  0  0  0  0  0  0  0  0  0  0
   -9.0491    3.8523   26.2542 C   0  0  0  0  0  0  0  0  0  0  0  0
   -9.9827    3.2456   26.6451 C   0  0  0  0  0  0  0  0  0  0  0  0
  -10.8316    2.5972   25.8351 C   0  0  0  0  0  0  0  0  0  0  0  0
  -10.7305    2.5445   24.6128 C   0  0  0  0  0  0  0  0  0  0  0  0
  -11.5121    1.8726   23.6885 C   0  0  0  0  0  0  0  0  0  0  0  0
   -8.2482    5.9330   27.9255 C   0  0  0  0  0  0  0  0  0  0  0  0
   -9.1378    6.5067   26.8986 C   0  0  0  0  0  0  0  0  0  0  0  0
  -12.6137    1.2270   24.2125 C   0  0  0  0  0  0  0  0  0  0  0  0
  -12.8695    1.2399   25.5152 C   0  0  0  0  0  0  0  0  0  0  0  0
  -12.0040    1.8966   26.4068 C   0  0  0  0  0  0  0  0  0  0  0  0
   -9.4578    5.3246   26.0480 C   0  0  0  0  0  0  0  0  0  0  0  0
   -7.3885    2.6490   27.3531 N   0  0  0  0  0  0  0  0  0  0  0  0
   -6.9197    1.6368   26.7704 C   0  0  0  0  0  0  0  0  0  0  0  0
   -7.3269    1.4623   25.6750 O   0  0  0  0  0  0  0  0  0  0  0  0
   -6.1307    0.6222   27.4833 C   0  0  0  0  0  0  0  0  0  0  0  0
   -6.2984   -0.6682   27.1221 C   0  0  0  0  0  0  0  0  0  0  0  0
   -7.2726   -1.1507   26.6472 C   0  0  0  0  0  0  0  0  0  0  0  0
   -7.4826   -2.5687   26.3371 C   0  0  0  0  0  0  0  0  0  0  0  0
   -6.4691   -3.3082   26.5803 C   0  0  0  0  0  0  0  0  0  0  0  0
   -5.2506   -2.8712   27.1292 C   0  0  0  0  0  0  0  0  0  0  0  0
   -5.1279   -1.5450   27.5008 C   0  0  0  0  0  0  0  0  0  0  0  0
  -14.0375    0.4981   26.0591 C   0  0  0  0  0  0  0  0  0  0  0  0
  -14.3298    0.3454   27.2679 N   0  0  0  0  0  0  0  0  0  0  0  0
  3  4  1  0
  4  5  1  0
  1 14  1  0
 14 15  1  0
 15 16  2  0
 15 17  1  0
 11 24  1  0
 24 25  2  0
 17 18  1  0
 18 19  2  0
 19 20  1  0
 20 21  2  0
 21 22  1  0
 22 23  2  0
 23 18  1  0
  1  2  2  0
  2  8  1  0
  8  9  2  0
  9 13  1  0
 13  3  2  0
  3  1  1  0
  5  6  2  0
  6  7  1  0
  7 10  2  0
 10 11  1  0
 11 12  2  0
 12  5  1  0
M  END
$$$$
