No_5724-complexes_sdf/6BKW-FPZ/2024-09-17-14-21-01/
     RDKit          3D

 40 44  0  0  0  0  0  0  0  0999 V2000
   -7.9040    3.9820   27.1177 C   0  0  0  0  0  0  0  0  0  0  0  0
   -8.2057    2.8231   26.8733 C   0  0  0  0  0  0  0  0  0  0  0  0
   -8.7695    5.0740   26.7916 C   0  0  0  0  0  0  0  0  0  0  0  0
   -8.4337    6.4678   27.0913 C   0  0  0  0  0  0  0  0  0  0  0  0
   -9.3742    2.4311   26.2346 C   0  0  0  0  0  0  0  0  0  0  0  0
  -10.2395    3.4267   25.8887 C   0  0  0  0  0  0  0  0  0  0  0  0
   -9.9567    4.7548   26.1374 C   0  0  0  0  0  0  0  0  0  0  0  0
   -7.8894    6.9001   28.1379 N   0  0  0  0  0  0  0  0  0  0  0  0
   -9.0142    7.3905   26.3413 O   0  0  0  0  0  0  0  0  0  0  0  0
   -7.2387    1.6786   27.2752 C   0  0  0  0  0  0  0  0  0  0  0  0
   -5.9923    2.0035   27.8509 C   0  0  0  0  0  0  0  0  0  0  0  0
   -5.1109    0.9362   28.2038 C   0  0  0  0  0  0  0  0  0  0  0  0
   -5.4938   -0.3473   28.0678 C   0  0  0  0  0  0  0  0  0  0  0  0
   -7.5451    0.3300   27.2094 C   0  0  0  0  0  0  0  0  0  0  0  0
   -6.7777   -0.6271   27.6298 C   0  0  0  0  0  0  0  0  0  0  0  0
   -4.5850   -1.3946   28.6007 C   0  0  0  0  0  0  0  0  0  0  0  0
   -4.7211   -2.0022   29.6388 C   0  0  0  0  0  0  0  0  0  0  0  0
   -5.6062   -1.6234   30.6217 C   0  0  0  0  0  0  0  0  0  0  0  0
   -5.6957   -2.2281   31.9701 C   0  0  0  0  0  0  0  0  0  0  0  0
   -6.4409   -1.6363   32.9954 C   0  0  0  0  0  0  0  0  0  0  0  0
   -6.4632   -1.4117   33.9786 C   0  0  0  0  0  0  0  0  0  0  0  0
   -5.4389   -2.1772   34.8516 C   0  0  0  0  0  0  0  0  0  0  0  0
   -4.5959   -2.9736   34.0189 C   0  0  0  0  0  0  0  0  0  0  0  0
   -4.5668   -2.8783   32.6240 C   0  0  0  0  0  0  0  0  0  0  0  0
   -3.4995   -1.5958   27.6233 C   0  0  0  0  0  0  0  0  0  0  0  0
   -2.9629   -2.6083   27.4998 C   0  0  0  0  0  0  0  0  0  0  0  0
   -3.0026   -3.4909   28.7145 C   0  0  0  0  0  0  0  0  0  0  0  0
   -3.7754   -3.1651   29.7942 C   0  0  0  0  0  0  0  0  0  0  0  0
   -5.4545   -2.1494   36.3039 C   0  0  0  0  0  0  0  0  0  0  0  0
   -4.8046   -1.1918   36.8808 N   0  0  0  0  0  0  0  0  0  0  0  0
   -5.2762   -0.4588   37.9988 C   0  0  0  0  0  0  0  0  0  0  0  0
   -4.5707    0.7657   38.3354 C   0  0  0  0  0  0  0  0  0  0  0  0
   -5.0148    1.7108   39.3117 C   0  0  0  0  0  0  0  0  0  0  0  0
   -6.2986    1.4555   39.8918 C   0  0  0  0  0  0  0  0  0  0  0  0
   -6.5359   -0.6005   38.5610 C   0  0  0  0  0  0  0  0  0  0  0  0
   -6.9817    0.3251   39.5228 C   0  0  0  0  0  0  0  0  0  0  0  0
   -3.3676   -1.3546   37.0529 C   0  0  0  0  0  0  0  0  0  0  0  0
   -2.8030   -1.8872   38.0501 C   0  0  0  0  0  0  0  0  0  0  0  0
   -2.6152   -0.6927   35.9510 C   0  0  0  0  0  0  0  0  0  0  0  0
   -1.2239   -0.8146   35.8972 C   0  0  0  0  0  0  0  0  0  0  0  0
  3  4  1  0
  4  8  1  0
  4  9  2  0
  2 10  1  0
 13 16  1  0
 18 19  1  0
 22 29  1  0
 29 30  1  0
 30 31  1  0
 30 37  1  0
 37 38  2  0
 37 39  1  0
 39 40  1  0
 18 17  1  0
 16 17  2  0
 17 28  1  0
 28 27  2  0
 27 26  1  0
 26 25  2  0
 25 16  1  0
 31 32  2  0
 32 33  1  0
 33 34  2  0
 34 36  1  0
 36 35  2  0
 35 31  1  0
  1  2  2  0
  2  5  1  0
  5  6  2  0
  6  7  1  0
  7  3  2  0
  3  1  1  0
 10 11  2  0
 11 12  1  0
 12 13  2  0
 13 15  1  0
 15 14  2  0
 14 10  1  0
 19 20  2  0
 20 21  1  0
 21 22  2  0
 22 23  1  0
 23 24  2  0
 24 19  1  0
M  END
$$$$
