No_5550-complexes_sdf/6BKW-FPZ/2024-09-17-14-21-01/
     RDKit          3D

 27 29  0  0  0  0  0  0  0  0999 V2000
   -7.7129    4.2099   27.0854 C   0  0  0  0  0  0  0  0  0  0  0  0
   -8.2112    3.0637   26.9225 C   0  0  0  0  0  0  0  0  0  0  0  0
   -9.4446    2.8304   26.1868 C   0  0  0  0  0  0  0  0  0  0  0  0
   -8.4697    5.3956   26.7238 C   0  0  0  0  0  0  0  0  0  0  0  0
   -9.6172    5.2111   25.9513 C   0  0  0  0  0  0  0  0  0  0  0  0
  -10.0424    3.9782   25.6873 C   0  0  0  0  0  0  0  0  0  0  0  0
   -7.9392    6.6271   26.9728 N   0  0  0  0  0  0  0  0  0  0  0  0
   -8.4973    7.7978   26.5547 C   0  0  0  0  0  0  0  0  0  0  0  0
   -7.4933    1.8052   27.3779 C   0  0  0  0  0  0  0  0  0  0  0  0
   -7.0826    0.7892   26.5759 Cl  0  0  0  0  0  0  0  0  0  0  0  0
  -11.2706    3.8305   24.8591 C   0  0  0  0  0  0  0  0  0  0  0  0
  -11.1820    3.9769   23.4924 C   0  0  0  0  0  0  0  0  0  0  0  0
  -12.2284    4.2285   22.6907 C   0  0  0  0  0  0  0  0  0  0  0  0
  -13.5462    4.2061   23.3185 C   0  0  0  0  0  0  0  0  0  0  0  0
  -13.6546    4.1039   24.7099 C   0  0  0  0  0  0  0  0  0  0  0  0
  -12.5174    4.0354   25.5122 C   0  0  0  0  0  0  0  0  0  0  0  0
  -12.6642    4.0123   26.9677 C   0  0  0  0  0  0  0  0  0  0  0  0
  -13.8201    4.2628   27.6337 C   0  0  0  0  0  0  0  0  0  0  0  0
  -13.9780    4.2713   29.0221 C   0  0  0  0  0  0  0  0  0  0  0  0
  -12.9253    3.5837   29.7670 C   0  0  0  0  0  0  0  0  0  0  0  0
  -11.7180    3.2116   29.1028 C   0  0  0  0  0  0  0  0  0  0  0  0
  -11.6092    3.3645   27.7259 C   0  0  0  0  0  0  0  0  0  0  0  0
  -15.1342    4.7495   29.7167 C   0  0  0  0  0  0  0  0  0  0  0  0
  -15.3608    5.8462   29.5533 F   0  0  0  0  0  0  0  0  0  0  0  0
  -14.8623    4.6212   31.1006 F   0  0  0  0  0  0  0  0  0  0  0  0
  -16.1573    3.9582   29.4183 F   0  0  0  0  0  0  0  0  0  0  0  0
   -7.7356    6.7835   28.5232 C   0  0  0  0  0  0  0  0  0  0  0  0
  4  7  1  0
  7  8  1  0
  2  9  1  0
  9 10  1  0
  6 11  1  0
 16 17  1  0
 19 23  1  0
 23 24  1  0
 23 25  1  0
 23 26  1  0
  7 27  1  0
 17 18  2  0
 18 19  1  0
 19 20  2  0
 20 21  1  0
 21 22  2  0
 22 17  1  0
 11 12  2  0
 12 13  1  0
 13 14  2  0
 14 15  1  0
 15 16  2  0
 16 11  1  0
  1  2  2  0
  2  3  1  0
  3  6  2  0
  6  5  1  0
  5  4  2  0
  4  1  1  0
M  END
$$$$
