No_5780-complexes_sdf/6BKW-FPZ/2024-09-17-14-21-01/
     RDKit          3D

 14 14  0  0  0  0  0  0  0  0999 V2000
   -7.7129    4.2099   27.0854 C   0  0  0  0  0  0  0  0  0  0  0  0
   -8.2112    3.0637   26.9225 C   0  0  0  0  0  0  0  0  0  0  0  0
   -8.5108    5.3904   26.9436 C   0  0  0  0  0  0  0  0  0  0  0  0
   -9.7256    5.1955   26.3518 C   0  0  0  0  0  0  0  0  0  0  0  0
   -9.4995    2.8258   26.4878 C   0  0  0  0  0  0  0  0  0  0  0  0
  -10.2542    3.9691   26.2055 C   0  0  0  0  0  0  0  0  0  0  0  0
   -7.9135    6.7086   27.1885 C   0  0  0  0  0  0  0  0  0  0  0  0
   -7.3624    1.8198   27.2561 C   0  0  0  0  0  0  0  0  0  0  0  0
   -7.8435    0.5905   27.1677 N   0  0  0  0  0  0  0  0  0  0  0  0
   -6.1813    1.9329   27.9046 N   0  0  0  0  0  0  0  0  0  0  0  0
   -8.9475    0.1056   26.6989 C   0  0  0  0  0  0  0  0  0  0  0  0
   -9.2385   -0.7874   26.0716 C   0  0  0  0  0  0  0  0  0  0  0  0
   -8.1216   -1.6524   25.7259 C   0  0  0  0  0  0  0  0  0  0  0  0
   -6.9177   -1.4931   26.3402 C   0  0  0  0  0  0  0  0  0  0  0  0
  3  7  1  0
  2  8  1  0
  8  9  2  3
  8 10  1  0
  9 11  1  0
 11 12  2  3
 12 13  1  0
 13 14  2  0
  1  2  2  0
  2  5  1  0
  5  6  2  0
  6  4  1  0
  4  3  2  0
  3  1  1  0
M  END
$$$$
