No_5503-complexes_sdf/6BKW-FPZ/2024-09-17-14-21-01/
     RDKit          3D

 18 19  0  0  0  0  0  0  0  0999 V2000
   -7.7129    4.2099   27.0854 C   0  0  0  0  0  0  0  0  0  0  0  0
   -8.2112    3.0637   26.9225 C   0  0  0  0  0  0  0  0  0  0  0  0
   -9.4446    2.8304   26.1868 C   0  0  0  0  0  0  0  0  0  0  0  0
   -6.6388    4.5347   28.1122 C   0  0  0  0  0  0  0  0  0  0  0  0
   -9.9448    3.9173   25.5585 C   0  0  0  0  0  0  0  0  0  0  0  0
   -9.3660    5.1901   25.7094 C   0  0  0  0  0  0  0  0  0  0  0  0
   -8.3659    5.4005   26.5436 C   0  0  0  0  0  0  0  0  0  0  0  0
  -11.1201    3.7823   24.6455 C   0  0  0  0  0  0  0  0  0  0  0  0
  -12.3137    3.5258   25.1347 C   0  0  0  0  0  0  0  0  0  0  0  0
  -10.9270    3.8971   23.2404 C   0  0  0  0  0  0  0  0  0  0  0  0
  -11.8487    3.8798   22.3067 C   0  0  0  0  0  0  0  0  0  0  0  0
  -13.4387    3.4883   24.2073 C   0  0  0  0  0  0  0  0  0  0  0  0
  -13.1720    3.6622   22.8574 C   0  0  0  0  0  0  0  0  0  0  0  0
   -6.6798    5.6751   28.6842 N   0  0  0  0  0  0  0  0  0  0  0  0
   -5.6060    3.8618   28.0307 O   0  0  0  0  0  0  0  0  0  0  0  0
   -9.9071    1.4849   25.9203 C   0  0  0  0  0  0  0  0  0  0  0  0
  -10.1565    0.8712   25.0504 C   0  0  0  0  0  0  0  0  0  0  0  0
  -10.5655   -0.4759   24.9444 C   0  0  0  0  0  0  0  0  0  0  0  0
  1  4  1  0
  5  8  1  0
  4 14  1  0
  4 15  2  0
  3 16  1  0
 16 17  2  3
 17 18  1  0
  8  9  2  0
  9 12  1  0
 12 13  2  0
 13 11  1  0
 11 10  2  0
 10  8  1  0
  1  2  2  0
  2  3  1  0
  3  5  2  0
  5  6  1  0
  6  7  2  0
  7  1  1  0
M  END
$$$$
