No_5555-complexes_sdf/6BKW-FPZ/2024-09-17-14-21-01/
     RDKit          3D

 17 18  0  0  0  0  0  0  0  0999 V2000
   -7.9040    3.9820   27.1177 C   0  0  0  0  0  0  0  0  0  0  0  0
   -8.2057    2.8231   26.8733 C   0  0  0  0  0  0  0  0  0  0  0  0
   -8.7695    5.0740   26.7916 C   0  0  0  0  0  0  0  0  0  0  0  0
   -8.4337    6.4678   27.0913 C   0  0  0  0  0  0  0  0  0  0  0  0
   -9.3742    2.4311   26.2346 C   0  0  0  0  0  0  0  0  0  0  0  0
  -10.2395    3.4267   25.8887 C   0  0  0  0  0  0  0  0  0  0  0  0
   -9.9567    4.7548   26.1374 C   0  0  0  0  0  0  0  0  0  0  0  0
   -8.7531    7.4243   26.4062 N   0  0  0  0  0  0  0  0  0  0  0  0
   -7.5246    6.5676   28.0539 O   0  0  0  0  0  0  0  0  0  0  0  0
   -7.2587    1.6730   27.2860 C   0  0  0  0  0  0  0  0  0  0  0  0
   -6.7603    0.8913   26.8779 C   0  0  0  0  0  0  0  0  0  0  0  0
   -5.7988   -0.0035   27.5690 C   0  0  0  0  0  0  0  0  0  0  0  0
   -5.6425   -1.3155   27.5268 C   0  0  0  0  0  0  0  0  0  0  0  0
   -4.7620   -1.9763   28.3782 C   0  0  0  0  0  0  0  0  0  0  0  0
   -3.9579   -1.2847   29.3270 C   0  0  0  0  0  0  0  0  0  0  0  0
   -4.0906    0.1275   29.3627 C   0  0  0  0  0  0  0  0  0  0  0  0
   -4.9488    0.7600   28.5808 C   0  0  0  0  0  0  0  0  0  0  0  0
  3  4  1  0
  4  8  2  0
  4  9  1  0
  2 10  1  0
 10 11  2  3
 11 12  1  0
 12 13  2  0
 13 14  1  0
 14 15  2  0
 15 16  1  0
 16 17  2  0
 17 12  1  0
  1  2  2  0
  2  5  1  0
  5  6  2  0
  6  7  1  0
  7  3  2  0
  3  1  1  0
M  END
$$$$
