No_5655-complexes_sdf/6BKW-FPZ/2024-09-17-14-21-01/
     RDKit          3D

 12 12  0  0  0  0  0  0  0  0999 V2000
   -7.2496    3.8871   27.4508 C   0  0  0  0  0  0  0  0  0  0  0  0
   -8.5096    4.0291   27.2770 C   0  0  0  0  0  0  0  0  0  0  0  0
   -9.2669    5.1645   27.5845 C   0  0  0  0  0  0  0  0  0  0  0  0
   -8.4566    6.3212   27.8001 C   0  0  0  0  0  0  0  0  0  0  0  0
   -6.4921    5.0197   27.7961 C   0  0  0  0  0  0  0  0  0  0  0  0
   -7.1702    6.2351   27.9936 C   0  0  0  0  0  0  0  0  0  0  0  0
   -9.3431    2.7525   27.0047 C   0  0  0  0  0  0  0  0  0  0  0  0
   -8.7107    1.5829   26.9484 C   0  0  0  0  0  0  0  0  0  0  0  0
   -7.3515    1.5077   27.2439 C   0  0  0  0  0  0  0  0  0  0  0  0
   -6.6033    2.6552   27.4742 N   0  0  0  0  0  0  0  0  0  0  0  0
   -5.2396    2.4961   27.7603 C   0  0  0  0  0  0  0  0  0  0  0  0
   -6.7924    3.6692   26.3888 O   0  0  0  0  0  0  0  0  0  0  0  0
  2  7  1  0
  7  8  2  3
  8  9  1  0
  9 10  2  3
 10 11  1  0
  1 12  1  0
  1  2  2  0
  2  3  1  0
  3  4  2  0
  4  6  1  0
  6  5  2  0
  5  1  1  0
M  END
$$$$
