No_5432-complexes_sdf/6BKW-FPZ/2024-09-17-14-21-01/
     RDKit          3D

 11 10  0  0  0  0  0  0  0  0999 V2000
   -7.2496    3.8871   27.4508 C   0  0  0  0  0  0  0  0  0  0  0  0
   -7.9379    4.9063   27.8518 C   0  0  0  0  0  0  0  0  0  0  0  0
   -7.5112    6.1898   27.6280 C   0  0  0  0  0  0  0  0  0  0  0  0
   -9.3085    4.6933   28.2930 C   0  0  0  0  0  0  0  0  0  0  0  0
   -6.9425    2.7755   27.7937 C   0  0  0  0  0  0  0  0  0  0  0  0
   -6.0489    1.8086   27.3013 C   0  0  0  0  0  0  0  0  0  0  0  0
   -6.3056    0.5320   27.4360 C   0  0  0  0  0  0  0  0  0  0  0  0
   -5.2759   -0.3235   27.9155 C   0  0  0  0  0  0  0  0  0  0  0  0
   -5.5188   -1.6576   28.2190 C   0  0  0  0  0  0  0  0  0  0  0  0
   -6.8069   -2.1355   27.8636 C   0  0  0  0  0  0  0  0  0  0  0  0
   -7.7723   -1.3738   27.3343 C   0  0  0  0  0  0  0  0  0  0  0  0
  1  2  1  0
  2  3  1  0
  2  4  1  0
  1  5  2  3
  5  6  1  0
  6  7  2  3
  7  8  1  0
  8  9  2  3
  9 10  1  0
 10 11  2  0
M  END
$$$$
