No_5407-complexes_sdf/6BKW-FPZ/2024-09-17-14-21-01/
     RDKit          3D

 20 21  0  0  0  0  0  0  0  0999 V2000
   -7.9040    3.9820   27.1177 C   0  0  0  0  0  0  0  0  0  0  0  0
   -8.2057    2.8231   26.8733 C   0  0  0  0  0  0  0  0  0  0  0  0
   -7.4766    1.7477   27.4593 C   0  0  0  0  0  0  0  0  0  0  0  0
   -8.7468    5.1251   26.6967 C   0  0  0  0  0  0  0  0  0  0  0  0
   -9.7234    4.8589   25.8202 C   0  0  0  0  0  0  0  0  0  0  0  0
   -9.9711    3.5858   25.4266 C   0  0  0  0  0  0  0  0  0  0  0  0
   -9.2266    2.4957   25.9600 C   0  0  0  0  0  0  0  0  0  0  0  0
   -6.1241    1.9216   27.8574 C   0  0  0  0  0  0  0  0  0  0  0  0
   -5.4248    0.7985   28.3602 C   0  0  0  0  0  0  0  0  0  0  0  0
   -5.9324   -0.4517   28.3727 C   0  0  0  0  0  0  0  0  0  0  0  0
   -7.8680    0.3890   27.4333 C   0  0  0  0  0  0  0  0  0  0  0  0
   -7.2076   -0.6217   27.9501 C   0  0  0  0  0  0  0  0  0  0  0  0
   -8.4174    6.5135   27.1003 C   0  0  0  0  0  0  0  0  0  0  0  0
   -8.6625    6.7556   28.2552 F   0  0  0  0  0  0  0  0  0  0  0  0
   -7.0791    6.8221   26.9023 F   0  0  0  0  0  0  0  0  0  0  0  0
   -9.1282    7.4466   26.3705 F   0  0  0  0  0  0  0  0  0  0  0  0
   -3.7447    1.1534   28.8804 Cl  0  0  0  0  0  0  0  0  0  0  0  0
  -11.0457    3.3580   24.4612 C   0  0  0  0  0  0  0  0  0  0  0  0
  -10.7575    3.0930   23.2081 C   0  0  0  0  0  0  0  0  0  0  0  0
  -11.7705    2.9259   22.1827 C   0  0  0  0  0  0  0  0  0  0  0  0
  2  3  1  0
  4 13  1  0
 13 14  1  0
 13 15  1  0
 13 16  1  0
  9 17  1  0
  6 18  1  0
 18 19  2  3
 19 20  1  0
  3  8  2  0
  8  9  1  0
  9 10  2  0
 10 12  1  0
 12 11  2  0
 11  3  1  0
  1  2  2  0
  2  7  1  0
  7  6  2  0
  6  5  1  0
  5  4  2  0
  4  1  1  0
M  END
$$$$
