No_5298-complexes_sdf/6BKW-FPZ/2024-09-17-14-21-01/
     RDKit          3D

 40 44  0  0  0  0  0  0  0  0999 V2000
   -7.2496    3.8871   27.4508 C   0  0  0  0  0  0  0  0  0  0  0  0
   -8.5096    4.0291   27.2770 C   0  0  0  0  0  0  0  0  0  0  0  0
   -9.2669    5.1645   27.5845 C   0  0  0  0  0  0  0  0  0  0  0  0
   -8.6549    6.1494   27.2495 C   0  0  0  0  0  0  0  0  0  0  0  0
   -6.5644    2.6263   27.2233 C   0  0  0  0  0  0  0  0  0  0  0  0
   -7.3239    1.4704   27.1050 C   0  0  0  0  0  0  0  0  0  0  0  0
   -9.1393    2.6494   27.2163 C   0  0  0  0  0  0  0  0  0  0  0  0
   -8.5953    1.5345   27.1760 C   0  0  0  0  0  0  0  0  0  0  0  0
   -9.2588    7.3575   26.6954 C   0  0  0  0  0  0  0  0  0  0  0  0
   -6.5527    0.2122   26.9952 C   0  0  0  0  0  0  0  0  0  0  0  0
   -6.7026   -0.5754   26.1797 O   0  0  0  0  0  0  0  0  0  0  0  0
   -5.5197   -0.0043   27.9994 N   0  0  0  0  0  0  0  0  0  0  0  0
   -4.7348   -1.1736   28.0519 C   0  0  0  0  0  0  0  0  0  0  0  0
   -4.0342   -1.0989   29.0187 C   0  0  0  0  0  0  0  0  0  0  0  0
   -3.9104   -0.2855   29.9234 C   0  0  0  0  0  0  0  0  0  0  0  0
   -4.5752    1.0032   29.7911 C   0  0  0  0  0  0  0  0  0  0  0  0
   -5.3436    1.0329   28.8823 C   0  0  0  0  0  0  0  0  0  0  0  0
   -8.2513    8.4769   26.4624 C   0  0  0  0  0  0  0  0  0  0  0  0
   -7.1901    6.5020   27.4307 C   0  0  0  0  0  0  0  0  0  0  0  0
   -7.0974    7.8896   26.9791 N   0  0  0  0  0  0  0  0  0  0  0  0
   -2.8775   -0.2953   31.1492 C   0  0  0  0  0  0  0  0  0  0  0  0
   -3.4406   -0.1365   32.4583 C   0  0  0  0  0  0  0  0  0  0  0  0
   -4.4103   -1.1010   32.8140 C   0  0  0  0  0  0  0  0  0  0  0  0
   -4.0546   -2.2995   33.4885 C   0  0  0  0  0  0  0  0  0  0  0  0
   -5.0985   -3.1760   33.8679 C   0  0  0  0  0  0  0  0  0  0  0  0
   -6.4269   -2.8869   33.4682 C   0  0  0  0  0  0  0  0  0  0  0  0
   -6.7470   -1.7788   32.7372 C   0  0  0  0  0  0  0  0  0  0  0  0
   -5.7601   -0.8582   32.4393 C   0  0  0  0  0  0  0  0  0  0  0  0
   -7.7026   -3.9905   33.8902 Cl  0  0  0  0  0  0  0  0  0  0  0  0
  -10.7187    2.7241   27.2563 C   0  0  0  0  0  0  0  0  0  0  0  0
  -11.2671    2.0079   28.3547 C   0  0  0  0  0  0  0  0  0  0  0  0
  -12.6653    2.0158   28.5722 C   0  0  0  0  0  0  0  0  0  0  0  0
  -13.4308    2.8448   27.7740 C   0  0  0  0  0  0  0  0  0  0  0  0
  -12.8479    3.5713   26.7478 C   0  0  0  0  0  0  0  0  0  0  0  0
  -11.4509    3.5967   26.5414 C   0  0  0  0  0  0  0  0  0  0  0  0
  -13.2736    1.2098   29.6579 C   0  0  0  0  0  0  0  0  0  0  0  0
  -13.4379    1.6462   30.7395 O   0  0  0  0  0  0  0  0  0  0  0  0
  -13.4190   -0.0536   29.3806 O   0  0  0  0  0  0  0  0  0  0  0  0
  -14.3618   -0.6695   29.6100 C   0  0  0  0  0  0  0  0  0  0  0  0
  -14.3327   -1.8382   29.2815 C   0  0  0  0  0  0  0  0  0  0  0  0
  2  3  1  0
  3  4  2  3
  4  9  1  0
  6 10  1  0
 10 11  2  0
 10 12  1  0
 12 13  1  0
 14 15  1  0
 15 16  1  0
 12 17  1  0
 16 17  1  0
  9 18  2  0
  4 19  1  0
 18 20  1  0
 19 20  1  0
 15 21  1  0
 21 22  1  0
 22 23  1  0
 26 29  1  0
  7 30  1  0
 32 36  1  0
 36 37  2  0
 36 38  1  0
 38 39  1  0
 39 40  2  0
 13 14  1  0
  1  2  2  0
  2  7  1  0
  7  8  2  0
  8  6  1  0
  6  5  2  0
  5  1  1  0
 23 24  2  0
 24 25  1  0
 25 26  2  0
 26 27  1  0
 27 28  2  0
 28 23  1  0
 30 31  2  0
 31 32  1  0
 32 33  2  0
 33 34  1  0
 34 35  2  0
 35 30  1  0
M  END
$$$$
