No_5868-complexes_sdf/6BKW-FPZ/2024-09-17-14-21-01/
     RDKit          3D

 14 15  0  0  0  0  0  0  0  0999 V2000
   -7.9040    3.9820   27.1177 C   0  0  0  0  0  0  0  0  0  0  0  0
   -8.2057    2.8231   26.8733 C   0  0  0  0  0  0  0  0  0  0  0  0
   -7.4766    1.7477   27.4593 C   0  0  0  0  0  0  0  0  0  0  0  0
   -6.7221    4.3631   27.8544 C   0  0  0  0  0  0  0  0  0  0  0  0
   -7.8124    0.3771   27.2172 C   0  0  0  0  0  0  0  0  0  0  0  0
   -5.8392    3.2900   28.1527 C   0  0  0  0  0  0  0  0  0  0  0  0
   -6.2223    1.9928   27.9988 C   0  0  0  0  0  0  0  0  0  0  0  0
   -6.9954   -0.5880   27.2918 C   0  0  0  0  0  0  0  0  0  0  0  0
   -5.6780   -0.2978   27.8559 C   0  0  0  0  0  0  0  0  0  0  0  0
   -5.2864    0.9650   28.2072 C   0  0  0  0  0  0  0  0  0  0  0  0
   -8.7540    5.1718   26.7063 C   0  0  0  0  0  0  0  0  0  0  0  0
   -8.8143    6.3819   27.4381 C   0  0  0  0  0  0  0  0  0  0  0  0
   -9.4419    5.0652   25.4678 C   0  0  0  0  0  0  0  0  0  0  0  0
  -10.3300    4.6478   24.7808 N   0  0  0  0  0  0  0  0  0  0  0  0
  1 11  1  0
 11 12  2  0
 11 13  1  0
 13 14  3  0
  3  5  2  0
  5  8  1  0
  8  9  2  0
  9 10  1  0
 10  7  2  0
  1  2  2  0
  2  3  1  0
  3  7  1  0
  7  6  1  0
  6  4  2  0
  4  1  1  0
M  END
$$$$
