No_5390-complexes_sdf/6BKW-FPZ/2024-09-17-14-21-01/
     RDKit          3D

 17 18  0  0  0  0  0  0  0  0999 V2000
   -7.9040    3.9820   27.1177 C   0  0  0  0  0  0  0  0  0  0  0  0
   -9.0711    4.3164   27.0630 C   0  0  0  0  0  0  0  0  0  0  0  0
   -9.9692    3.7224   26.1073 C   0  0  0  0  0  0  0  0  0  0  0  0
   -6.9787    4.6761   28.1003 C   0  0  0  0  0  0  0  0  0  0  0  0
   -9.4538    2.6801   25.3673 C   0  0  0  0  0  0  0  0  0  0  0  0
   -8.1927    2.1957   25.6621 C   0  0  0  0  0  0  0  0  0  0  0  0
   -7.4333    2.8255   26.6299 C   0  0  0  0  0  0  0  0  0  0  0  0
  -10.3066    1.9975   24.3777 C   0  0  0  0  0  0  0  0  0  0  0  0
  -11.2414    1.4779   24.5755 C   0  0  0  0  0  0  0  0  0  0  0  0
  -11.7939    1.4377   25.9144 C   0  0  0  0  0  0  0  0  0  0  0  0
  -13.1312    0.7820   26.1549 C   0  0  0  0  0  0  0  0  0  0  0  0
  -13.4893    0.7418   27.4982 C   0  0  0  0  0  0  0  0  0  0  0  0
  -12.7370    1.3195   28.5810 C   0  0  0  0  0  0  0  0  0  0  0  0
  -11.5324    1.8984   28.2751 C   0  0  0  0  0  0  0  0  0  0  0  0
  -11.1105    1.9294   27.0928 C   0  0  0  0  0  0  0  0  0  0  0  0
  -10.0655    2.6753   27.0882 F   0  0  0  0  0  0  0  0  0  0  0  0
  -10.0968    0.8100   27.1813 F   0  0  0  0  0  0  0  0  0  0  0  0
  1  4  1  0
  5  8  1  0
  8  9  2  3
  9 10  1  0
  3 16  1  0
 15 17  1  0
 10 11  2  0
 11 12  1  0
 12 13  2  0
 13 14  1  0
 14 15  2  0
 15 10  1  0
  1  2  2  0
  2  3  1  0
  3  5  2  0
  5  6  1  0
  6  7  2  0
  7  1  1  0
M  END
$$$$
