No_5865-complexes_sdf/6BKW-FPZ/2024-09-17-14-21-01/
     RDKit          3D

 12 12  0  0  0  0  0  0  0  0999 V2000
   -7.9040    3.9820   27.1177 C   0  0  0  0  0  0  0  0  0  0  0  0
   -7.8663    4.8694   27.9238 C   0  0  0  0  0  0  0  0  0  0  0  0
   -7.4547    2.7080   27.4594 C   0  0  0  0  0  0  0  0  0  0  0  0
   -6.1474    2.6388   27.8014 C   0  0  0  0  0  0  0  0  0  0  0  0
   -8.5539    6.1392   27.6636 C   0  0  0  0  0  0  0  0  0  0  0  0
   -5.5162    1.3823   28.1415 C   0  0  0  0  0  0  0  0  0  0  0  0
   -4.2075    1.3041   28.6355 C   0  0  0  0  0  0  0  0  0  0  0  0
   -8.7864    4.1526   25.9696 C   0  0  0  0  0  0  0  0  0  0  0  0
   -9.4662    5.3687   25.7112 C   0  0  0  0  0  0  0  0  0  0  0  0
   -9.2616    6.4247   26.5994 C   0  0  0  0  0  0  0  0  0  0  0  0
   -6.1099    0.2282   27.4493 C   0  0  0  0  0  0  0  0  0  0  0  0
   -7.3982    0.2564   26.9744 C   0  0  0  0  0  0  0  0  0  0  0  0
  3  4  1  0
  4  6  2  3
  6  7  1  0
  6 11  1  0
 11 12  2  0
  3  1  1  0
  1  2  2  0
  2  5  1  0
  5 10  2  0
 10  9  1  0
  9  8  2  0
  8  1  1  0
M  END
$$$$
