No_5873-complexes_sdf/6BKW-FPZ/2024-09-17-14-21-01/
     RDKit          3D

 34 38  0  0  0  0  0  0  0  0999 V2000
   -7.9040    3.9820   27.1177 C   0  0  0  0  0  0  0  0  0  0  0  0
   -8.2057    2.8231   26.8733 C   0  0  0  0  0  0  0  0  0  0  0  0
   -8.7695    5.0740   26.7916 C   0  0  0  0  0  0  0  0  0  0  0  0
   -8.4337    6.4678   27.0913 C   0  0  0  0  0  0  0  0  0  0  0  0
   -9.3742    2.4311   26.2346 C   0  0  0  0  0  0  0  0  0  0  0  0
  -10.2395    3.4267   25.8887 C   0  0  0  0  0  0  0  0  0  0  0  0
   -9.9567    4.7548   26.1374 C   0  0  0  0  0  0  0  0  0  0  0  0
   -7.8881    6.8714   28.1602 N   0  0  0  0  0  0  0  0  0  0  0  0
   -8.5586    7.3431   26.1372 O   0  0  0  0  0  0  0  0  0  0  0  0
   -7.2552    1.6761   27.2897 C   0  0  0  0  0  0  0  0  0  0  0  0
   -6.0165    2.0036   27.8707 C   0  0  0  0  0  0  0  0  0  0  0  0
   -5.1268    0.9334   28.2190 C   0  0  0  0  0  0  0  0  0  0  0  0
   -5.5036   -0.3502   28.0760 C   0  0  0  0  0  0  0  0  0  0  0  0
   -7.5571    0.3239   27.1869 C   0  0  0  0  0  0  0  0  0  0  0  0
   -6.7923   -0.6301   27.6155 C   0  0  0  0  0  0  0  0  0  0  0  0
   -4.6063   -1.3887   28.5992 C   0  0  0  0  0  0  0  0  0  0  0  0
   -4.0709   -1.2679   29.8059 C   0  0  0  0  0  0  0  0  0  0  0  0
   -3.0693   -2.1247   30.2504 C   0  0  0  0  0  0  0  0  0  0  0  0
   -2.7807   -3.2124   29.4442 C   0  0  0  0  0  0  0  0  0  0  0  0
   -4.1831   -2.4408   27.8365 C   0  0  0  0  0  0  0  0  0  0  0  0
   -3.2658   -3.3259   28.1950 C   0  0  0  0  0  0  0  0  0  0  0  0
  -11.4498    3.1197   25.1022 C   0  0  0  0  0  0  0  0  0  0  0  0
  -11.3350    2.4816   23.9495 C   0  0  0  0  0  0  0  0  0  0  0  0
  -10.8252    1.5844   23.6571 C   0  0  0  0  0  0  0  0  0  0  0  0
  -10.7222    0.9037   22.2977 C   0  0  0  0  0  0  0  0  0  0  0  0
  -11.2906    1.6211   21.2740 C   0  0  0  0  0  0  0  0  0  0  0  0
  -11.8826    2.8251   21.5329 C   0  0  0  0  0  0  0  0  0  0  0  0
  -11.9395    3.3525   22.7884 C   0  0  0  0  0  0  0  0  0  0  0  0
  -12.7271    3.3577   25.7558 C   0  0  0  0  0  0  0  0  0  0  0  0
  -12.9166    3.4099   27.0724 C   0  0  0  0  0  0  0  0  0  0  0  0
  -14.1194    3.8610   27.6364 C   0  0  0  0  0  0  0  0  0  0  0  0
  -15.1965    4.0797   26.7414 C   0  0  0  0  0  0  0  0  0  0  0  0
  -13.8444    3.7281   24.9648 C   0  0  0  0  0  0  0  0  0  0  0  0
  -15.0146    4.0732   25.4543 C   0  0  0  0  0  0  0  0  0  0  0  0
  3  4  1  0
  4  8  1  0
  4  9  2  0
  2 10  1  0
 13 16  1  0
  6 22  1  0
 22 23  1  0
 22 29  1  0
 23 24  2  0
 24 25  1  0
 25 26  2  0
 26 27  1  0
 27 28  2  0
 28 23  1  0
  1  2  2  0
  2  5  1  0
  5  6  2  0
  6  7  1  0
  7  3  2  0
  3  1  1  0
 29 30  2  0
 30 31  1  0
 31 32  2  0
 32 34  1  0
 34 33  2  0
 33 29  1  0
 10 11  2  0
 11 12  1  0
 12 13  2  0
 13 15  1  0
 15 14  2  0
 14 10  1  0
 16 17  2  0
 17 18  1  0
 18 19  2  0
 19 21  1  0
 21 20  2  0
 20 16  1  0
M  END
$$$$
