No_5152-complexes_sdf/6BKW-FPZ/2024-09-17-14-21-01/
     RDKit          3D

 19 20  0  0  0  0  0  0  0  0999 V2000
   -7.9040    3.9820   27.1177 C   0  0  0  0  0  0  0  0  0  0  0  0
   -8.2057    2.8231   26.8733 C   0  0  0  0  0  0  0  0  0  0  0  0
   -8.7695    5.0740   26.7916 C   0  0  0  0  0  0  0  0  0  0  0  0
   -8.4337    6.4678   27.0913 C   0  0  0  0  0  0  0  0  0  0  0  0
   -9.3742    2.4311   26.2346 C   0  0  0  0  0  0  0  0  0  0  0  0
  -10.2395    3.4267   25.8887 C   0  0  0  0  0  0  0  0  0  0  0  0
   -9.9567    4.7548   26.1374 C   0  0  0  0  0  0  0  0  0  0  0  0
   -8.8469    7.3199   26.4450 F   0  0  0  0  0  0  0  0  0  0  0  0
   -7.0078    6.5565   27.1206 F   0  0  0  0  0  0  0  0  0  0  0  0
   -7.2479    1.6777   27.2902 C   0  0  0  0  0  0  0  0  0  0  0  0
   -5.8445    2.1128   28.0522 Cl  0  0  0  0  0  0  0  0  0  0  0  0
   -7.4794    0.3234   27.0241 C   0  0  0  0  0  0  0  0  0  0  0  0
   -6.9192   -0.3030   26.2714 C   0  0  0  0  0  0  0  0  0  0  0  0
   -5.7097    0.0518   25.5928 C   0  0  0  0  0  0  0  0  0  0  0  0
   -5.0521   -1.0166   24.6770 C   0  0  0  0  0  0  0  0  0  0  0  0
   -5.7793   -2.1807   24.4671 C   0  0  0  0  0  0  0  0  0  0  0  0
   -6.9576   -2.4784   25.0721 C   0  0  0  0  0  0  0  0  0  0  0  0
   -7.5349   -1.6116   25.9736 C   0  0  0  0  0  0  0  0  0  0  0  0
   -8.7299    6.6286   28.4420 F   0  0  0  0  0  0  0  0  0  0  0  0
  3  4  1  0
  4  8  1  0
  4  9  1  0
  2 10  1  0
 10 11  1  0
 10 12  1  0
  4 19  1  0
 12 13  1  0
 13 14  2  0
 14 15  1  0
 15 16  2  0
 16 17  1  0
 17 18  2  0
 18 13  1  0
  1  2  2  0
  2  5  1  0
  5  6  2  0
  6  7  1  0
  7  3  2  0
  3  1  1  0
M  END
$$$$
