No_5218-complexes_sdf/6BKW-FPZ/2024-09-17-14-21-01/
     RDKit          3D

 15 16  0  0  0  0  0  0  0  0999 V2000
   -7.2496    3.8871   27.4508 C   0  0  0  0  0  0  0  0  0  0  0  0
   -7.6161    2.7143   27.1523 C   0  0  0  0  0  0  0  0  0  0  0  0
   -8.8302    2.4659   26.5056 C   0  0  0  0  0  0  0  0  0  0  0  0
   -8.1584    5.0089   27.3234 C   0  0  0  0  0  0  0  0  0  0  0  0
   -9.3788    4.7965   26.7695 C   0  0  0  0  0  0  0  0  0  0  0  0
   -9.7028    3.5649   26.3276 C   0  0  0  0  0  0  0  0  0  0  0  0
   -6.2488    1.3200   27.4894 Br  0  0  0  0  0  0  0  0  0  0  0  0
   -7.6148    6.5819   27.8083 Cl  0  0  0  0  0  0  0  0  0  0  0  0
  -10.9970    3.3430   25.6736 C   0  0  0  0  0  0  0  0  0  0  0  0
  -12.1027    3.2957   26.3708 C   0  0  0  0  0  0  0  0  0  0  0  0
  -13.3445    3.6160   25.9434 C   0  0  0  0  0  0  0  0  0  0  0  0
  -13.4794    3.7677   24.5123 C   0  0  0  0  0  0  0  0  0  0  0  0
  -11.0594    3.6618   24.2478 C   0  0  0  0  0  0  0  0  0  0  0  0
  -12.3344    3.9145   23.7328 C   0  0  0  0  0  0  0  0  0  0  0  0
   -9.2562    0.9009   25.9637 Cl  0  0  0  0  0  0  0  0  0  0  0  0
  2  7  1  0
  4  8  1  0
  6  9  1  0
  3 15  1  0
  1  2  2  0
  2  3  1  0
  3  6  2  0
  6  5  1  0
  5  4  2  0
  4  1  1  0
  9 10  2  0
 10 11  1  0
 11 12  2  0
 12 14  1  0
 14 13  2  0
 13  9  1  0
M  END
$$$$
