No_5205-complexes_sdf/6BKW-FPZ/2024-09-17-14-21-01/
     RDKit          3D

 28 32  0  0  0  0  0  0  0  0999 V2000
   -7.9040    3.9820   27.1177 C   0  0  0  0  0  0  0  0  0  0  0  0
   -7.8663    4.8694   27.9238 C   0  0  0  0  0  0  0  0  0  0  0  0
   -9.0491    3.8523   26.2542 C   0  0  0  0  0  0  0  0  0  0  0  0
   -9.4067    2.6808   25.6532 C   0  0  0  0  0  0  0  0  0  0  0  0
   -8.5275    6.1191   27.7061 C   0  0  0  0  0  0  0  0  0  0  0  0
  -10.3221    2.7328   24.5970 C   0  0  0  0  0  0  0  0  0  0  0  0
   -9.8044    5.0259   26.3544 C   0  0  0  0  0  0  0  0  0  0  0  0
   -9.5343    6.1177   26.9641 C   0  0  0  0  0  0  0  0  0  0  0  0
  -10.5791    1.5524   23.8268 C   0  0  0  0  0  0  0  0  0  0  0  0
   -9.8087    0.3864   24.0929 C   0  0  0  0  0  0  0  0  0  0  0  0
   -8.6519    1.4613   25.7404 C   0  0  0  0  0  0  0  0  0  0  0  0
   -8.8699    0.3728   25.0905 C   0  0  0  0  0  0  0  0  0  0  0  0
   -8.1187   -0.8524   25.3415 C   0  0  0  0  0  0  0  0  0  0  0  0
   -6.9398   -0.6806   25.6400 C   0  0  0  0  0  0  0  0  0  0  0  0
   -6.0801   -1.8365   25.9807 C   0  0  0  0  0  0  0  0  0  0  0  0
   -4.7960   -1.5553   26.5684 C   0  0  0  0  0  0  0  0  0  0  0  0
   -4.3463   -0.2371   26.8322 C   0  0  0  0  0  0  0  0  0  0  0  0
   -5.2910    0.7778   26.8069 C   0  0  0  0  0  0  0  0  0  0  0  0
   -6.4910    0.5726   26.2723 C   0  0  0  0  0  0  0  0  0  0  0  0
   -7.4067    1.6042   26.2440 N   0  0  0  0  0  0  0  0  0  0  0  0
   -3.0112   -0.0214   27.4795 C   0  0  0  0  0  0  0  0  0  0  0  0
   -2.3046   -0.6118   27.9536 O   0  0  0  0  0  0  0  0  0  0  0  0
   -2.6632    1.4018   27.2298 O   0  0  0  0  0  0  0  0  0  0  0  0
   -8.7392   -2.0810   24.8950 C   0  0  0  0  0  0  0  0  0  0  0  0
   -8.4572   -3.1335   25.4493 C   0  0  0  0  0  0  0  0  0  0  0  0
   -9.4124   -4.2679   25.0254 C   0  0  0  0  0  0  0  0  0  0  0  0
  -10.2987   -3.9943   24.0971 C   0  0  0  0  0  0  0  0  0  0  0  0
   -9.9299   -2.2528   24.0867 C   0  0  0  0  0  0  0  0  0  0  0  0
  3  4  1  0
 17 21  1  0
 21 22  2  0
 21 23  1  0
 13 24  1  0
 24 25  2  0
 25 26  1  0
 26 27  2  0
 24 28  1  0
 27 28  1  0
  4  6  2  0
  6  9  1  0
  9 10  2  0
 10 12  1  0
 11  4  1  0
 14 15  1  0
 15 16  2  0
 16 17  1  0
 17 18  2  0
 18 19  1  0
 11 12  2  0
 12 13  1  0
 13 14  2  0
 14 19  1  0
 19 20  2  0
 20 11  1  0
  1  2  2  0
  2  5  1  0
  5  8  2  0
  8  7  1  0
  7  3  2  0
  3  1  1  0
M  END
$$$$
