No_5149-complexes_sdf/6BKW-FPZ/2024-09-17-14-21-01/
     RDKit          3D

 40 44  0  0  0  0  0  0  0  0999 V2000
   -7.2496    3.8871   27.4508 C   0  0  0  0  0  0  0  0  0  0  0  0
   -7.9379    4.9063   27.8518 C   0  0  0  0  0  0  0  0  0  0  0  0
   -9.3460    4.8223   27.8695 C   0  0  0  0  0  0  0  0  0  0  0  0
   -7.8628    2.6163   27.1065 C   0  0  0  0  0  0  0  0  0  0  0  0
   -9.2787    2.5744   27.1970 C   0  0  0  0  0  0  0  0  0  0  0  0
  -10.0108    3.6770   27.6340 C   0  0  0  0  0  0  0  0  0  0  0  0
  -11.4855    3.5731   27.7420 C   0  0  0  0  0  0  0  0  0  0  0  0
  -12.3115    4.3555   27.3965 C   0  0  0  0  0  0  0  0  0  0  0  0
  -13.6950    4.4264   27.6217 C   0  0  0  0  0  0  0  0  0  0  0  0
  -12.0395    2.4852   28.5248 C   0  0  0  0  0  0  0  0  0  0  0  0
  -13.3492    2.3553   28.8058 C   0  0  0  0  0  0  0  0  0  0  0  0
  -14.1844    3.3825   28.3437 C   0  0  0  0  0  0  0  0  0  0  0  0
   -7.0820    1.4798   26.7765 C   0  0  2  0  0  0  0  0  0  0  0  0
   -6.0443    1.0278   27.6874 C   0  0  0  0  0  0  0  0  0  0  0  0
   -5.3373   -0.1466   27.5598 C   0  0  0  0  0  0  0  0  0  0  0  0
   -5.8256   -0.9824   26.5762 C   0  0  0  0  0  0  0  0  0  0  0  0
   -7.1259    1.1374   25.6812 F   0  0  0  0  0  0  0  0  0  0  0  0
   -4.4069   -0.5286   28.6191 C   0  0  0  0  0  0  0  0  0  0  0  0
   -4.1148    0.1474   29.6301 C   0  0  0  0  0  0  0  0  0  0  0  0
   -3.2525   -0.3323   30.6987 C   0  0  0  0  0  0  0  0  0  0  0  0
   -2.6031   -1.5088   30.4461 C   0  0  0  0  0  0  0  0  0  0  0  0
   -2.8314   -2.2047   29.3248 C   0  0  0  0  0  0  0  0  0  0  0  0
   -3.7222   -1.7645   28.3572 C   0  0  0  0  0  0  0  0  0  0  0  0
   -7.3427    6.1174   28.0984 O   0  0  0  0  0  0  0  0  0  0  0  0
  -15.6810    3.2735   28.5494 C   0  0  0  0  0  0  0  0  0  0  0  0
  -16.1879    3.3817   29.7604 C   0  0  0  0  0  0  0  0  0  0  0  0
  -17.4987    3.3814   30.0101 C   0  0  0  0  0  0  0  0  0  0  0  0
  -16.4719    3.0782   27.4424 C   0  0  0  0  0  0  0  0  0  0  0  0
  -17.8623    3.0786   27.6528 C   0  0  0  0  0  0  0  0  0  0  0  0
  -18.3539    3.2167   28.9330 C   0  0  0  0  0  0  0  0  0  0  0  0
  -19.8344    3.1627   29.1202 C   0  0  0  0  0  0  0  0  0  0  0  0
  -20.3893    3.5030   30.1893 N   0  0  0  0  0  0  0  0  0  0  0  0
  -20.5177    2.7575   28.1349 O   0  0  0  0  0  0  0  0  0  0  0  0
  -19.7726    4.0484   31.4060 C   0  0  0  0  0  0  0  0  0  0  0  0
  -18.4695    3.9751   31.6947 C   0  0  0  0  0  0  0  0  0  0  0  0
  -17.8825    3.5536   31.2632 C   0  0  0  0  0  0  0  0  0  0  0  0
   -5.1331   -1.3074   25.6199 N   0  0  0  0  0  0  0  0  0  0  0  0
   -5.6022   -1.8930   24.4386 C   0  0  0  0  0  0  0  0  0  0  0  0
   -7.0427   -1.3637   26.6194 O   0  0  0  0  0  0  0  0  0  0  0  0
   -6.1754   -0.8523   23.5179 C   0  0  0  0  0  0  0  0  0  0  0  0
  6  7  1  0
  4 13  1  0
 13 14  1  0
 14 15  2  3
 15 16  1  0
 13 17  1  6
 15 18  1  0
  2 24  1  0
 12 25  1  0
 30 31  1  0
 31 32  1  0
 31 33  2  0
 32 34  1  0
 34 35  2  0
 27 36  1  0
 35 36  1  0
 16 37  1  0
 37 38  1  0
 16 39  2  0
 38 40  1  0
 18 19  2  0
 19 20  1  0
 20 21  2  0
 21 22  1  0
 22 23  2  0
 23 18  1  0
 25 26  2  0
 26 27  1  0
 27 30  2  0
 30 29  1  0
 29 28  2  0
 28 25  1  0
  1  2  2  0
  2  3  1  0
  3  6  2  0
  6  5  1  0
  5  4  2  0
  4  1  1  0
  7  8  2  0
  8  9  1  0
  9 12  2  0
 12 11  1  0
 11 10  2  0
 10  7  1  0
M  END
$$$$
