No_5967-complexes_sdf/6BKW-FPZ/2024-09-17-14-21-01/
     RDKit          3D

 25 26  0  0  0  0  0  0  0  0999 V2000
   -7.7129    4.2099   27.0854 C   0  0  0  0  0  0  0  0  0  0  0  0
   -8.2112    3.0637   26.9225 C   0  0  0  0  0  0  0  0  0  0  0  0
   -8.4224    5.2106   27.8516 C   0  0  0  0  0  0  0  0  0  0  0  0
   -9.5628    2.7160   27.4089 C   0  0  0  0  0  0  0  0  0  0  0  0
  -10.2428    3.7496   28.1155 C   0  0  0  0  0  0  0  0  0  0  0  0
   -9.6677    4.9738   28.3232 C   0  0  0  0  0  0  0  0  0  0  0  0
   -7.7834    6.4141   28.0170 O   0  0  0  0  0  0  0  0  0  0  0  0
  -10.1026    1.3916   27.2160 C   0  0  0  0  0  0  0  0  0  0  0  0
  -11.0053    1.0329   28.0162 N   0  0  0  0  0  0  0  0  0  0  0  0
  -11.8875    0.4274   27.9230 C   0  0  0  0  0  0  0  0  0  0  0  0
  -12.8065    0.0572   29.0528 C   0  0  0  0  0  0  0  0  0  0  0  0
  -12.2740   -0.2352   26.6817 C   0  0  0  0  0  0  0  0  0  0  0  0
  -13.3586   -1.0327   26.5792 C   0  0  0  0  0  0  0  0  0  0  0  0
  -13.8784   -0.7562   28.9605 C   0  0  0  0  0  0  0  0  0  0  0  0
  -14.1678   -1.3186   27.6768 C   0  0  0  0  0  0  0  0  0  0  0  0
   -9.8763    0.8462   26.1392 O   0  0  0  0  0  0  0  0  0  0  0  0
  -13.7070   -1.6714   25.3047 C   0  0  1  0  0  0  0  0  0  0  0  0
  -14.6345   -2.2538   25.0664 C   0  0  0  0  0  0  0  0  0  0  0  0
  -14.8834   -2.7378   23.7793 C   0  0  0  0  0  0  0  0  0  0  0  0
  -13.9715   -2.5203   22.7887 C   0  0  0  0  0  0  0  0  0  0  0  0
  -12.7806   -1.5194   24.0513 C   0  0  0  0  0  0  0  0  0  0  0  0
  -12.8908   -1.8745   22.9673 C   0  0  0  0  0  0  0  0  0  0  0  0
  -11.8994   -1.6309   21.9203 C   0  0  0  0  0  0  0  0  0  0  0  0
  -14.2764   -3.0799   21.4205 C   0  0  0  0  0  0  0  0  0  0  0  0
  -14.8770   -3.0199   22.6924 Cl  0  0  0  0  0  0  0  0  0  0  0  0
  3  7  1  0
  4  8  1  0
  8  9  1  0
  9 10  1  0
  8 16  2  0
 13 17  1  0
 17 18  1  6
 18 19  1  0
 19 20  2  3
 17 21  1  0
 21 22  2  3
 22 23  1  0
 20 24  1  0
 20 25  1  0
  1  2  2  0
  2  4  1  0
  4  5  2  0
  5  6  1  0
  6  3  2  0
  3  1  1  0
 10 11  2  0
 11 14  1  0
 14 15  2  0
 15 13  1  0
 13 12  2  0
 12 10  1  0
M  END
$$$$
