No_5428-complexes_sdf/6BKW-FPZ/2024-09-17-14-21-01/
     RDKit          3D

 19 21  0  0  0  0  0  0  0  0999 V2000
   -7.7129    4.2099   27.0854 C   0  0  0  0  0  0  0  0  0  0  0  0
   -8.9133    4.4736   27.0998 C   0  0  0  0  0  0  0  0  0  0  0  0
   -9.4643    5.5426   27.7628 C   0  0  0  0  0  0  0  0  0  0  0  0
   -6.8373    4.9942   27.9785 C   0  0  0  0  0  0  0  0  0  0  0  0
   -7.3717    6.0428   28.6744 C   0  0  0  0  0  0  0  0  0  0  0  0
   -8.6869    6.3937   28.5345 C   0  0  0  0  0  0  0  0  0  0  0  0
   -9.6413    3.5082   26.1378 C   0  0  0  0  0  0  0  0  0  0  0  0
  -10.7057    2.8548   26.6220 C   0  0  0  0  0  0  0  0  0  0  0  0
  -11.1146    1.8077   26.1676 C   0  0  0  0  0  0  0  0  0  0  0  0
  -10.6751    1.3897   24.8418 C   0  0  0  0  0  0  0  0  0  0  0  0
  -10.1287    2.2527   24.2538 C   0  0  0  0  0  0  0  0  0  0  0  0
   -9.3723    3.3699   24.8558 C   0  0  0  0  0  0  0  0  0  0  0  0
   -9.6144    2.0464   22.7651 C   0  0  0  0  0  0  0  0  0  0  0  0
   -9.2963    0.8400   22.3450 C   0  0  0  0  0  0  0  0  0  0  0  0
   -8.9598    0.6395   21.0297 C   0  0  0  0  0  0  0  0  0  0  0  0
   -8.7440   -0.7173   20.6859 C   0  0  0  0  0  0  0  0  0  0  0  0
   -8.8570   -1.7425   21.6863 C   0  0  0  0  0  0  0  0  0  0  0  0
   -9.1473   -1.4944   22.9171 C   0  0  0  0  0  0  0  0  0  0  0  0
   -9.4096   -0.2058   23.3041 C   0  0  0  0  0  0  0  0  0  0  0  0
  2  7  1  0
 11 13  1  0
 13 14  1  0
 14 15  2  0
 15 16  1  0
 16 17  2  0
 17 18  1  0
 18 19  2  0
 19 14  1  0
  1  2  2  0
  2  3  1  0
  3  6  2  0
  6  5  1  0
  5  4  2  0
  4  1  1  0
  7  8  2  0
  8  9  1  0
  9 10  2  0
 10 11  1  0
 11 12  2  0
 12  7  1  0
M  END
$$$$
