No_5357-complexes_sdf/6BKW-FPZ/2024-09-17-14-21-01/
     RDKit          3D

 17 19  0  0  0  0  0  0  0  0999 V2000
   -7.9040    3.9820   27.1177 C   0  0  0  0  0  0  0  0  0  0  0  0
   -7.8663    4.8694   27.9238 C   0  0  0  0  0  0  0  0  0  0  0  0
   -9.0491    3.8523   26.2542 C   0  0  0  0  0  0  0  0  0  0  0  0
   -8.7661    5.9491   27.9690 C   0  0  0  0  0  0  0  0  0  0  0  0
   -9.9295    4.8502   26.2323 C   0  0  0  0  0  0  0  0  0  0  0  0
   -9.8077    5.9288   27.0933 C   0  0  0  0  0  0  0  0  0  0  0  0
   -7.0120    2.8934   27.1747 N   0  0  0  0  0  0  0  0  0  0  0  0
   -5.9584    2.9314   27.9624 C   0  0  0  0  0  0  0  0  0  0  0  0
   -5.1656    1.7153   27.9579 N   0  0  0  0  0  0  0  0  0  0  0  0
   -5.6833    0.6681   27.4948 C   0  0  0  0  0  0  0  0  0  0  0  0
   -7.2087    1.4416   26.9779 C   0  0  2  0  0  0  0  0  0  0  0  0
   -8.1914    0.7568   26.4143 C   0  0  0  0  0  0  0  0  0  0  0  0
   -8.0210   -0.3618   25.9393 C   0  0  0  0  0  0  0  0  0  0  0  0
   -9.1172   -1.0505   25.3105 C   0  0  0  0  0  0  0  0  0  0  0  0
  -10.3587   -0.4175   25.2978 C   0  0  0  0  0  0  0  0  0  0  0  0
  -10.4940    0.8298   25.8181 C   0  0  0  0  0  0  0  0  0  0  0  0
   -9.3846    1.4322   26.4514 C   0  0  0  0  0  0  0  0  0  0  0  0
  1  7  1  0
  7  8  1  0
  8  9  2  0
  9 10  1  0
  7 11  1  0
 10 11  1  0
 11 12  1  6
 12 13  2  0
 13 14  1  0
 14 15  2  0
 15 16  1  0
 16 17  2  0
 17 12  1  0
  1  2  2  0
  2  4  1  0
  4  6  2  0
  6  5  1  0
  5  3  2  0
  3  1  1  0
M  END
$$$$
