No_5686-complexes_sdf/6BKW-FPZ/2024-09-17-14-21-01/
     RDKit          3D

 12 13  0  0  0  0  0  0  0  0999 V2000
   -7.7129    4.2099   27.0854 C   0  0  0  0  0  0  0  0  0  0  0  0
   -8.2112    3.0637   26.9225 C   0  0  0  0  0  0  0  0  0  0  0  0
   -9.4446    2.8304   26.1868 C   0  0  0  0  0  0  0  0  0  0  0  0
   -8.4697    5.3956   26.7238 C   0  0  0  0  0  0  0  0  0  0  0  0
   -9.6172    5.2111   25.9513 C   0  0  0  0  0  0  0  0  0  0  0  0
  -10.0424    3.9782   25.6873 C   0  0  0  0  0  0  0  0  0  0  0  0
   -7.7652    1.7929   27.3484 N   0  0  0  0  0  0  0  0  0  0  0  0
   -6.4265    1.6729   27.6939 C   0  0  0  0  0  0  0  0  0  0  0  0
   -5.9171    0.3908   28.0268 C   0  0  0  0  0  0  0  0  0  0  0  0
   -8.5031    0.7253   27.7246 C   0  0  0  0  0  0  0  0  0  0  0  0
   -6.6426   -0.6591   28.2014 C   0  0  0  0  0  0  0  0  0  0  0  0
   -8.0032   -0.4722   27.9809 N   0  0  0  0  0  0  0  0  0  0  0  0
  2  7  1  0
  7  8  1  0
  7 10  1  0
  9 11  1  0
 10 12  1  0
 11 12  1  0
  8  9  1  0
  1  2  2  0
  2  3  1  0
  3  6  2  0
  6  5  1  0
  5  4  2  0
  4  1  1  0
M  END
$$$$
