No_596-complexes_sdf/6BKW-FPZ/2024-09-17-14-21-01/
     RDKit          3D

 25 28  0  0  0  0  0  0  0  0999 V2000
   -7.2496    3.8871   27.4508 C   0  0  0  0  0  0  0  0  0  0  0  0
   -7.9379    4.9063   27.8518 C   0  0  0  0  0  0  0  0  0  0  0  0
   -9.3376    4.8647   27.7795 C   0  0  0  0  0  0  0  0  0  0  0  0
   -7.8544    2.6294   27.0414 C   0  0  0  0  0  0  0  0  0  0  0  0
   -9.2852    2.6570   27.0666 C   0  0  0  0  0  0  0  0  0  0  0  0
  -10.0126    3.7528   27.4890 C   0  0  0  0  0  0  0  0  0  0  0  0
  -11.4647    3.4920   27.5096 C   0  0  0  0  0  0  0  0  0  0  0  0
  -12.0366    2.6013   27.7757 N   0  0  0  0  0  0  0  0  0  0  0  0
  -12.3100    2.0663   28.6473 C   0  0  0  0  0  0  0  0  0  0  0  0
  -12.7955    0.6682   28.8219 C   0  0  0  0  0  0  0  0  0  0  0  0
  -12.6064    0.2659   27.5213 C   0  0  0  0  0  0  0  0  0  0  0  0
  -12.1477    1.4116   26.8320 C   0  0  0  0  0  0  0  0  0  0  0  0
   -7.1447    1.6045   26.7266 O   0  0  0  0  0  0  0  0  0  0  0  0
   -6.3111    1.0809   27.7044 C   0  0  0  0  0  0  0  0  0  0  0  0
   -6.3585   -0.3980   27.7422 C   0  0  0  0  0  0  0  0  0  0  0  0
   -5.5928   -0.9228   28.7572 C   0  0  0  0  0  0  0  0  0  0  0  0
   -5.6853   -2.2515   29.1244 C   0  0  0  0  0  0  0  0  0  0  0  0
   -6.5945   -3.0252   28.3293 C   0  0  0  0  0  0  0  0  0  0  0  0
   -7.3708   -2.4490   27.3493 C   0  0  0  0  0  0  0  0  0  0  0  0
   -7.2930   -1.0912   27.1318 C   0  0  0  0  0  0  0  0  0  0  0  0
   -7.3086    6.0672   28.2271 O   0  0  0  0  0  0  0  0  0  0  0  0
  -12.1774    4.6740   27.3209 O   0  0  0  0  0  0  0  0  0  0  0  0
   -4.5949   -0.0801   29.5227 C   0  0  0  0  0  0  0  0  0  0  0  0
   -3.8480    0.8673   28.8264 C   0  0  0  0  0  0  0  0  0  0  0  0
   -5.0327    1.8094   27.9893 C   0  0  0  0  0  0  0  0  0  0  0  0
  6  7  1  0
  7  8  1  0
  8  9  1  0
  9 10  2  0
 10 11  1  0
  8 12  1  0
 11 12  2  0
  4 13  1  0
 13 14  1  0
  2 21  1  0
  7 22  2  0
 16 17  2  0
 17 18  1  0
 18 19  2  0
 19 20  1  0
 20 15  2  0
 14 15  1  0
 15 16  1  0
 16 23  1  0
 23 24  2  0
 24 25  1  0
 25 14  2  0
  1  2  2  0
  2  3  1  0
  3  6  2  0
  6  5  1  0
  5  4  2  0
  4  1  1  0
M  END
$$$$
