No_5479-complexes_sdf/6BKW-FPZ/2024-09-17-14-21-01/
     RDKit          3D

 33 37  0  0  0  0  0  0  0  0999 V2000
   -7.9040    3.9820   27.1177 C   0  0  0  0  0  0  0  0  0  0  0  0
   -8.2057    2.8231   26.8733 C   0  0  0  0  0  0  0  0  0  0  0  0
   -7.0130    4.3706   28.1140 C   0  0  0  0  0  0  0  0  0  0  0  0
   -9.4741    2.4344   26.3718 C   0  0  0  0  0  0  0  0  0  0  0  0
  -10.2009    3.3542   25.7490 C   0  0  0  0  0  0  0  0  0  0  0  0
   -9.8070    4.7433   25.8809 C   0  0  0  0  0  0  0  0  0  0  0  0
   -8.7506    5.0992   26.6368 C   0  0  0  0  0  0  0  0  0  0  0  0
   -8.2000    6.3979   26.9560 C   0  0  0  0  0  0  0  0  0  0  0  0
   -9.0149    7.5861   26.5232 C   0  0  0  0  0  0  0  0  0  0  0  0
   -7.1186    6.4499   27.8821 C   0  0  0  0  0  0  0  0  0  0  0  0
   -6.6017    5.5716   28.4148 N   0  0  0  0  0  0  0  0  0  0  0  0
   -9.7758    0.9879   26.0786 C   0  0  0  0  0  0  0  0  0  0  0  0
  -10.7603    0.5493   26.6403 C   0  0  0  0  0  0  0  0  0  0  0  0
  -11.7057    1.1221   27.1843 C   0  0  0  0  0  0  0  0  0  0  0  0
  -12.8132    0.5022   27.9959 C   0  0  0  0  0  0  0  0  0  0  0  0
  -12.7516   -0.8568   28.0973 C   0  0  0  0  0  0  0  0  0  0  0  0
  -11.7885   -1.6004   27.5649 C   0  0  0  0  0  0  0  0  0  0  0  0
  -10.7612   -0.9953   26.9134 C   0  0  0  0  0  0  0  0  0  0  0  0
   -9.7053    0.7494   24.5353 C   0  0  0  0  0  0  0  0  0  0  0  0
  -10.4677    1.2196   23.7223 C   0  0  0  0  0  0  0  0  0  0  0  0
  -10.4135    0.8914   22.4886 C   0  0  0  0  0  0  0  0  0  0  0  0
   -9.3001    0.1244   21.9526 C   0  0  0  0  0  0  0  0  0  0  0  0
   -8.6123   -0.1003   24.0659 C   0  0  0  0  0  0  0  0  0  0  0  0
   -8.4375   -0.3687   22.8420 C   0  0  0  0  0  0  0  0  0  0  0  0
   -8.4749    0.3039   26.6639 N   0  0  0  0  0  0  0  0  0  0  0  0
   -7.2375    0.4585   26.4594 C   0  0  1  0  0  0  0  0  0  0  0  0
   -7.1199    1.9246   27.0699 N   0  0  0  0  0  0  0  0  0  0  0  0
   -6.1376   -0.2660   26.5171 C   0  0  0  0  0  0  0  0  0  0  0  0
   -5.1609   -0.1440   27.4935 C   0  0  0  0  0  0  0  0  0  0  0  0
   -4.0018   -0.8871   27.6295 C   0  0  0  0  0  0  0  0  0  0  0  0
   -2.9837   -0.4898   28.5658 C   0  0  0  0  0  0  0  0  0  0  0  0
   -3.2923    0.5423   29.5210 C   0  0  0  0  0  0  0  0  0  0  0  0
   -4.5647    1.1741   29.4169 C   0  0  0  0  0  0  0  0  0  0  0  0
  8  9  1  0
  4 12  1  0
 12 13  1  0
 12 19  1  0
 12 25  1  0
 26 25  1  1
  2 27  1  0
 26 27  1  0
 26 28  1  0
 28 29  2  3
 29 30  1  0
 30 31  2  3
 31 32  1  0
 32 33  2  0
  1  3  2  0
  3 11  1  0
 11 10  2  0
 10  8  1  0
  8  7  2  0
 19 20  2  0
 20 21  1  0
 21 22  2  0
 22 24  1  0
 24 23  2  0
 23 19  1  0
 13 14  2  0
 14 15  1  0
 15 16  2  0
 16 17  1  0
 17 18  2  0
 18 13  1  0
  1  2  1  0
  2  4  2  0
  4  5  1  0
  5  6  2  0
  6  7  1  0
  7  1  1  0
M  END
$$$$
