No_5070-complexes_sdf/6BKW-FPZ/2024-09-17-14-21-01/
     RDKit          3D

 15 16  0  0  0  0  0  0  0  0999 V2000
   -7.2496    3.8871   27.4508 C   0  0  0  0  0  0  0  0  0  0  0  0
   -8.5096    4.0291   27.2770 C   0  0  0  0  0  0  0  0  0  0  0  0
   -9.2669    5.1645   27.5845 C   0  0  0  0  0  0  0  0  0  0  0  0
  -10.6621    5.2321   27.4284 C   0  0  0  0  0  0  0  0  0  0  0  0
   -9.2095    2.9872   26.5061 C   0  0  0  0  0  0  0  0  0  0  0  0
  -10.5753    3.0643   26.2613 C   0  0  2  0  0  0  0  0  0  0  0  0
  -11.2536    2.0615   25.5287 C   0  0  0  0  0  0  0  0  0  0  0  0
  -11.2837    4.2278   26.6401 C   0  0  0  0  0  0  0  0  0  0  0  0
  -10.6945    1.3645   24.7720 C   0  0  0  0  0  0  0  0  0  0  0  0
  -11.3157    0.3811   23.9539 C   0  0  0  0  0  0  0  0  0  0  0  0
   -6.5276    4.8633   28.0440 N   0  0  0  0  0  0  0  0  0  0  0  0
   -6.4727    2.3406   27.4447 Cl  0  0  0  0  0  0  0  0  0  0  0  0
  -12.6478    0.2757   24.0057 C   0  0  0  0  0  0  0  0  0  0  0  0
  -13.3145    1.1178   24.8509 C   0  0  0  0  0  0  0  0  0  0  0  0
  -12.6619    2.0855   25.6002 C   0  0  0  0  0  0  0  0  0  0  0  0
  1  2  2  3
  2  3  1  0
  3  4  1  0
  2  5  1  0
  5  6  1  0
  6  7  1  6
  4  8  1  0
  6  8  1  0
  1 11  1  0
  1 12  1  0
  7  9  2  0
  9 10  1  0
 10 13  2  0
 13 14  1  0
 14 15  2  0
 15  7  1  0
M  END
$$$$
