No_5964-complexes_sdf/6BKW-FPZ/2024-09-17-14-21-01/
     RDKit          3D

 13 15  0  0  0  0  0  0  0  0999 V2000
   -7.9040    3.9820   27.1177 C   0  0  0  0  0  0  0  0  0  0  0  0
   -7.8663    4.8694   27.9238 C   0  0  0  0  0  0  0  0  0  0  0  0
   -9.0491    3.8523   26.2542 C   0  0  0  0  0  0  0  0  0  0  0  0
   -9.7161    4.8785   25.9890 C   0  0  0  0  0  0  0  0  0  0  0  0
   -8.4350    6.1486   27.6826 C   0  0  0  0  0  0  0  0  0  0  0  0
   -9.6240    6.0947   26.8541 C   0  0  0  0  0  0  0  0  0  0  0  0
   -7.1296    2.6753   27.3894 C   0  0  0  0  0  0  0  0  0  0  0  0
   -7.4386    1.4117   26.8755 C   0  0  0  0  0  0  0  0  0  0  0  0
   -8.6936    1.2570   26.2924 C   0  0  0  0  0  0  0  0  0  0  0  0
   -9.4347    2.5467   25.7119 C   0  0  0  0  0  0  0  0  0  0  0  0
  -10.2212    2.3901   24.5919 C   0  0  0  0  0  0  0  0  0  0  0  0
  -11.1855    3.1887   24.3357 C   0  0  0  0  0  0  0  0  0  0  0  0
  -11.0356    4.6501   24.8205 C   0  0  0  0  0  0  0  0  0  0  0  0
  1  2  1  0
  2  5  1  0
  4  6  1  0
  5  6  1  0
  3  4  2  0
  4 13  1  0
 13 12  2  0
 12 11  1  0
 11 10  2  0
  1  3  1  0
  3 10  1  0
 10  9  1  0
  9  8  2  0
  8  7  1  0
  7  1  2  0
M  END
$$$$
