No_5166-complexes_sdf/6BKW-FPZ/2024-09-17-14-21-01/
     RDKit          3D

 40 45  0  0  0  0  0  0  0  0999 V2000
   -7.7129    4.2099   27.0854 C   0  0  0  0  0  0  0  0  0  0  0  0
   -7.7814    5.1722   27.8972 C   0  0  0  0  0  0  0  0  0  0  0  0
   -8.8998    3.8713   26.3707 C   0  0  0  0  0  0  0  0  0  0  0  0
   -8.9563    2.6796   25.5490 C   0  0  0  0  0  0  0  0  0  0  0  0
   -8.8131    6.1334   27.9344 C   0  0  0  0  0  0  0  0  0  0  0  0
   -9.9804    5.8121   27.1929 C   0  0  0  0  0  0  0  0  0  0  0  0
   -9.9861    4.6836   26.4532 C   0  0  0  0  0  0  0  0  0  0  0  0
   -8.3398    1.5722   26.0349 N   0  0  0  0  0  0  0  0  0  0  0  0
   -8.8438    0.5439   26.3664 C   0  0  0  0  0  0  0  0  0  0  0  0
  -10.1937    0.3332   26.3385 C   0  0  0  0  0  0  0  0  0  0  0  0
   -8.0048   -0.5647   26.9614 C   0  0  0  0  0  0  0  0  0  0  0  0
   -8.4600   -1.5758   27.6584 C   0  0  0  0  0  0  0  0  0  0  0  0
  -10.7437   -0.8598   27.0479 C   0  0  0  0  0  0  0  0  0  0  0  0
   -9.9067   -1.7299   27.7040 C   0  0  0  0  0  0  0  0  0  0  0  0
   -9.5838    2.6109   24.4980 O   0  0  0  0  0  0  0  0  0  0  0  0
  -10.4916   -2.8324   28.3419 N   0  0  0  0  0  0  0  0  0  0  0  0
  -11.0004   -2.9773   29.2710 C   0  0  1  0  0  0  0  0  0  0  0  0
  -11.4231   -4.1634   29.8792 C   0  0  0  0  0  0  0  0  0  0  0  0
  -10.3236   -4.1297   27.6278 C   0  0  0  0  0  0  0  0  0  0  0  0
  -10.7164   -5.2645   28.0557 C   0  0  0  0  0  0  0  0  0  0  0  0
  -11.3210   -5.3066   29.2837 C   0  0  0  0  0  0  0  0  0  0  0  0
   -7.6613   -2.5626   28.3356 C   0  0  0  0  0  0  0  0  0  0  0  0
   -7.1046   -1.9388   29.5742 C   0  0  0  0  0  0  0  0  0  0  0  0
   -6.3556   -2.7402   30.4859 C   0  0  0  0  0  0  0  0  0  0  0  0
   -6.2087   -4.0730   30.1161 C   0  0  0  0  0  0  0  0  0  0  0  0
   -6.7279   -4.5966   28.9904 C   0  0  0  0  0  0  0  0  0  0  0  0
   -7.4725   -3.8038   28.1109 C   0  0  0  0  0  0  0  0  0  0  0  0
  -11.1010   -1.8837   30.2291 N   0  0  0  0  0  0  0  0  0  0  0  0
   -5.7909   -2.0973   31.6715 C   0  0  0  0  0  0  0  0  0  0  0  0
   -4.8673   -1.1122   31.5269 C   0  0  0  0  0  0  0  0  0  0  0  0
   -4.0758   -0.5578   32.5078 C   0  0  0  0  0  0  0  0  0  0  0  0
   -4.2590   -1.0166   33.8308 C   0  0  0  0  0  0  0  0  0  0  0  0
   -5.2939   -1.9794   34.0521 C   0  0  0  0  0  0  0  0  0  0  0  0
   -5.9982   -2.5060   33.0079 C   0  0  0  0  0  0  0  0  0  0  0  0
   -7.0627   -3.4669   33.3182 C   0  0  0  0  0  0  0  0  0  0  0  0
   -6.8491   -4.6629   33.3784 C   0  0  0  0  0  0  0  0  0  0  0  0
   -8.3957   -3.0596   32.6531 C   0  0  0  0  0  0  0  0  0  0  0  0
   -7.8260   -5.6528   33.5175 C   0  0  0  0  0  0  0  0  0  0  0  0
   -9.4597   -3.9615   32.8955 C   0  0  0  0  0  0  0  0  0  0  0  0
   -9.1200   -5.2804   33.2333 C   0  0  0  0  0  0  0  0  0  0  0  0
  3  4  1  0
  4  8  1  0
  8  9  1  0
  4 15  2  0
 14 16  1  0
 16 17  1  0
 16 19  1  0
 18 21  1  0
 20 21  1  0
 12 22  1  0
 17 28  1  1
 24 29  1  0
 34 35  1  0
 17 18  1  0
 20 19  1  0
  1  2  2  0
  2  5  1  0
  5  6  2  0
  6  7  1  0
  7  3  2  0
  3  1  1  0
 29 30  2  0
 30 31  1  0
 31 32  2  0
 32 33  1  0
 33 34  2  0
 34 29  1  0
 22 23  2  0
 23 24  1  0
 24 25  2  0
 25 26  1  0
 26 27  2  0
 27 22  1  0
  9 10  2  0
 10 13  1  0
 13 14  2  0
 14 12  1  0
 12 11  2  0
 11  9  1  0
 35 36  2  0
 36 38  1  0
 38 40  2  0
 40 39  1  0
 39 37  2  0
 37 35  1  0
M  END
$$$$
