No_5194-complexes_sdf/6BKW-FPZ/2024-09-17-14-21-01/
     RDKit          3D

 22 25  0  0  0  0  0  0  0  0999 V2000
   -7.9040    3.9820   27.1177 C   0  0  0  0  0  0  0  0  0  0  0  0
   -7.8663    4.8694   27.9238 C   0  0  0  0  0  0  0  0  0  0  0  0
   -7.4547    2.7080   27.4594 C   0  0  0  0  0  0  0  0  0  0  0  0
   -8.0927    6.2909   27.5184 C   0  0  0  0  0  0  0  0  0  0  0  0
   -8.9150    6.5640   26.4331 C   0  0  0  0  0  0  0  0  0  0  0  0
   -7.3743    1.4980   26.9652 C   0  0  0  0  0  0  0  0  0  0  0  0
   -8.3812    1.2674   25.9722 C   0  0  0  0  0  0  0  0  0  0  0  0
   -9.1764    2.4183   25.5575 C   0  0  0  0  0  0  0  0  0  0  0  0
   -8.9365    3.7032   26.1438 C   0  0  0  0  0  0  0  0  0  0  0  0
   -9.6483    4.8018   25.5637 C   0  0  0  0  0  0  0  0  0  0  0  0
   -9.4825    6.0692   25.6765 N   0  0  0  0  0  0  0  0  0  0  0  0
   -6.6335    0.3814   27.4455 C   0  0  0  0  0  0  0  0  0  0  0  0
   -6.8828   -0.8892   27.4084 C   0  0  0  0  0  0  0  0  0  0  0  0
   -8.2204   -1.1861   26.9419 C   0  0  0  0  0  0  0  0  0  0  0  0
   -8.8561   -0.1796   26.0184 C   0  0  0  0  0  0  0  0  0  0  0  0
   -8.9012    8.0095   26.3174 N   0  0  0  0  0  0  0  0  0  0  0  0
  -10.0213   -0.4871   25.2588 C   0  0  0  0  0  0  0  0  0  0  0  0
  -10.7607    0.1414   24.9457 C   0  0  0  0  0  0  0  0  0  0  0  0
  -11.8806   -0.1893   23.9741 C   0  0  0  0  0  0  0  0  0  0  0  0
  -11.8809   -1.5068   23.6396 C   0  0  0  0  0  0  0  0  0  0  0  0
  -10.1432   -1.8766   24.7759 C   0  0  0  0  0  0  0  0  0  0  0  0
  -11.0315   -2.3228   24.0363 C   0  0  0  0  0  0  0  0  0  0  0  0
  1  2  1  0
  2  4  2  0
  4  5  1  0
  9 10  1  0
  5 11  1  0
 10 11  2  0
  5 16  1  0
 15 17  1  0
  7 15  2  0
 15 14  1  0
 14 13  2  0
 13 12  1  0
 12  6  2  0
  1  3  2  0
  3  6  1  0
  6  7  1  0
  7  8  1  0
  8  9  2  0
  9  1  1  0
 17 18  2  0
 18 19  1  0
 19 20  2  0
 20 22  1  0
 22 21  2  0
 21 17  1  0
M  END
$$$$
