No_5857-complexes_sdf/6BKW-FPZ/2024-09-17-14-21-01/
     RDKit          3D

 17 19  0  0  0  0  0  0  0  0999 V2000
   -7.7129    4.2099   27.0854 C   0  0  0  0  0  0  0  0  0  0  0  0
   -7.7814    5.1722   27.8972 C   0  0  0  0  0  0  0  0  0  0  0  0
   -7.2983    2.9533   27.5684 C   0  0  0  0  0  0  0  0  0  0  0  0
   -7.6908    1.8111   26.9553 C   0  0  0  0  0  0  0  0  0  0  0  0
   -7.2237    0.5782   27.3450 C   0  0  0  0  0  0  0  0  0  0  0  0
   -7.9192   -0.5866   27.0520 C   0  0  0  0  0  0  0  0  0  0  0  0
   -9.0161   -0.3845   26.4998 C   0  0  0  0  0  0  0  0  0  0  0  0
   -9.6087    0.7556   26.0069 C   0  0  0  0  0  0  0  0  0  0  0  0
   -8.8939    1.9334   26.3760 C   0  0  0  0  0  0  0  0  0  0  0  0
   -8.5365    6.3648   27.5585 C   0  0  0  0  0  0  0  0  0  0  0  0
   -9.0710    4.0303   26.4307 C   0  0  2  0  0  0  0  0  0  0  0  0
   -9.5057    3.1063   25.9337 C   0  0  0  0  0  0  0  0  0  0  0  0
   -9.6760    5.4185   26.2976 C   0  0  0  0  0  0  0  0  0  0  0  0
  -10.5050    3.0701   24.9228 C   0  0  0  0  0  0  0  0  0  0  0  0
  -10.3694    2.6225   23.7091 C   0  0  0  0  0  0  0  0  0  0  0  0
  -11.2360    2.7233   22.6806 C   0  0  0  0  0  0  0  0  0  0  0  0
  -12.4097    3.4209   22.9092 C   0  0  0  0  0  0  0  0  0  0  0  0
  1  2  2  0
  1  3  1  0
  3  4  1  0
  2 10  1  0
  1 11  1  0
  9 12  1  0
 11 12  1  0
 10 13  1  0
 11 13  1  6
 12 14  1  0
 14 15  2  3
 15 16  1  0
 16 17  2  0
  4  5  2  0
  5  6  1  0
  6  7  2  0
  7  8  1  0
  8  9  2  0
  9  4  1  0
M  END
$$$$
