No_5434-complexes_sdf/6BKW-FPZ/2024-09-17-14-21-01/
     RDKit          3D

 40 44  0  0  0  0  0  0  0  0999 V2000
   -7.7129    4.2099   27.0854 C   0  0  0  0  0  0  0  0  0  0  0  0
   -8.9133    4.4736   27.0998 C   0  0  0  0  0  0  0  0  0  0  0  0
   -9.7135    3.9633   26.0300 C   0  0  0  0  0  0  0  0  0  0  0  0
   -7.1708    2.9509   26.6517 C   0  0  0  0  0  0  0  0  0  0  0  0
   -8.1422    2.1350   26.0104 C   0  0  0  0  0  0  0  0  0  0  0  0
   -9.3363    2.7131   25.6563 C   0  0  0  0  0  0  0  0  0  0  0  0
   -9.2382    5.8136   27.3476 F   0  0  0  0  0  0  0  0  0  0  0  0
   -7.7659    0.7838   25.6487 C   0  0  0  0  0  0  0  0  0  0  0  0
   -7.0046    0.1084   26.4658 N   0  0  0  0  0  0  0  0  0  0  0  0
   -6.8614    0.3953   27.6133 C   0  0  0  0  0  0  0  0  0  0  0  0
   -5.5726   -0.2447   28.2175 C   0  0  0  0  0  0  0  0  0  0  0  0
   -4.9481    0.2255   29.3781 C   0  0  0  0  0  0  0  0  0  0  0  0
   -3.9721   -0.2955   29.8141 C   0  0  0  0  0  0  0  0  0  0  0  0
   -3.2502   -1.3455   29.2438 C   0  0  0  0  0  0  0  0  0  0  0  0
   -3.7765   -1.8027   28.0485 C   0  0  0  0  0  0  0  0  0  0  0  0
   -4.9078   -1.2625   27.5263 C   0  0  0  0  0  0  0  0  0  0  0  0
   -5.8069   -0.5111   25.7710 C   0  0  0  0  0  0  0  0  0  0  0  0
   -5.1425   -1.3741   26.1772 C   0  0  0  0  0  0  0  0  0  0  0  0
   -8.3871    0.2530   24.7061 O   0  0  0  0  0  0  0  0  0  0  0  0
   -3.4595    0.1738   31.1273 O   0  0  0  0  0  0  0  0  0  0  0  0
   -2.7712   -0.7705   31.9253 C   0  0  0  0  0  0  0  0  0  0  0  0
   -2.6774   -0.2280   33.2886 C   0  0  0  0  0  0  0  0  0  0  0  0
   -2.6710   -1.2902   34.2553 C   0  0  1  0  0  0  0  0  0  0  0  0
   -2.8682   -0.9676   35.5415 C   0  0  0  0  0  0  0  0  0  0  0  0
   -2.1940    0.1272   36.0211 C   0  0  1  0  0  0  0  0  0  0  0  0
   -2.8618    0.6924   37.4349 Cl  0  0  0  0  0  0  0  0  0  0  0  0
   -0.8339   -0.1323   36.3525 O   0  0  0  0  0  0  0  0  0  0  0  0
   -3.5840   -2.3320   33.7087 N   0  0  0  0  0  0  0  0  0  0  0  0
   -3.5551   -3.4370   34.2598 C   0  0  0  0  0  0  0  0  0  0  0  0
   -4.5413   -4.3832   33.7908 C   0  0  0  0  0  0  0  0  0  0  0  0
   -4.9185   -1.7054   33.5568 C   0  0  0  0  0  0  0  0  0  0  0  0
   -5.8510   -2.6427   33.0233 C   0  0  1  0  0  0  0  0  0  0  0  0
   -5.9649   -3.8980   33.6221 C   0  0  0  0  0  0  0  0  0  0  0  0
   -7.2465   -1.9380   32.8783 C   0  0  0  0  0  0  0  0  0  0  0  0
   -8.1162   -2.6034   31.8918 C   0  0  0  0  0  0  0  0  0  0  0  0
   -9.4314   -2.6861   32.0764 C   0  0  0  0  0  0  0  0  0  0  0  0
  -10.2764   -2.8203   30.9548 C   0  0  0  0  0  0  0  0  0  0  0  0
   -9.6619   -3.0865   29.6765 C   0  0  0  0  0  0  0  0  0  0  0  0
   -8.2666   -3.0407   29.5420 C   0  0  0  0  0  0  0  0  0  0  0  0
   -7.4881   -2.7136   30.6174 C   0  0  0  0  0  0  0  0  0  0  0  0
  2  7  1  0
  5  8  1  0
  8  9  1  0
  9 10  1  0
  9 17  1  0
 16 18  1  0
  8 19  2  0
 13 20  1  0
 20 21  1  0
 21 22  1  0
 23 22  1  6
 23 24  1  0
 24 25  1  0
 25 26  1  0
 25 27  1  1
 23 28  1  0
 28 29  1  0
 28 31  1  0
 31 32  1  0
 30 33  1  0
 32 33  1  0
 32 34  1  1
 34 35  1  0
 29 30  1  0
 10 11  1  0
 18 17  1  0
  1  2  2  0
  2  3  1  0
  3  6  2  0
  6  5  1  0
  5  4  2  0
  4  1  1  0
 35 36  2  0
 36 37  1  0
 37 38  2  0
 38 39  1  0
 39 40  2  0
 40 35  1  0
 11 12  2  0
 12 13  1  0
 13 14  2  0
 14 15  1  0
 15 16  2  0
 16 11  1  0
M  END
$$$$
