No_5562-complexes_sdf/6BKW-FPZ/2024-09-17-14-21-01/
     RDKit          3D

 14 15  0  0  0  0  0  0  0  0999 V2000
   -7.7129    4.2099   27.0854 C   0  0  0  0  0  0  0  0  0  0  0  0
   -7.7814    5.1722   27.8972 C   0  0  0  0  0  0  0  0  0  0  0  0
   -7.3155    2.9700   27.6145 C   0  0  0  0  0  0  0  0  0  0  0  0
   -7.6814    1.8188   26.9581 C   0  0  0  0  0  0  0  0  0  0  0  0
   -8.6377    1.9131   25.9324 C   0  0  0  0  0  0  0  0  0  0  0  0
   -9.1866    3.0673   25.6037 C   0  0  0  0  0  0  0  0  0  0  0  0
   -8.8394    4.1752   26.2513 C   0  0  0  0  0  0  0  0  0  0  0  0
   -6.9883    5.2843   28.9878 F   0  0  0  0  0  0  0  0  0  0  0  0
   -8.2820    6.5199   27.5224 C   0  0  0  0  0  0  0  0  0  0  0  0
   -9.2737    6.7157   26.5903 C   0  0  0  0  0  0  0  0  0  0  0  0
   -9.5166    5.4342   25.8738 C   0  0  0  0  0  0  0  0  0  0  0  0
   -7.0160    0.5441   27.2972 C   0  0  0  0  0  0  0  0  0  0  0  0
   -7.6513   -0.6543   27.2135 C   0  0  0  0  0  0  0  0  0  0  0  0
   -7.0378   -1.8296   27.6285 C   0  0  0  0  0  0  0  0  0  0  0  0
  2  8  1  0
  4 12  1  0
 12 13  2  3
 13 14  1  0
  1  2  2  0
  2  9  1  0
  9 10  2  0
 10 11  1  0
 11  7  2  0
  1  3  1  0
  3  4  2  0
  4  5  1  0
  5  6  2  0
  6  7  1  0
  7  1  1  0
M  END
$$$$
