No_5409-complexes_sdf/6BKW-FPZ/2024-09-17-14-21-01/
     RDKit          3D

 28 31  0  0  0  0  0  0  0  0999 V2000
   -7.9040    3.9820   27.1177 C   0  0  0  0  0  0  0  0  0  0  0  0
   -9.0711    4.3164   27.0630 C   0  0  0  0  0  0  0  0  0  0  0  0
   -9.5294    5.4517   27.7215 C   0  0  0  0  0  0  0  0  0  0  0  0
   -6.9328    4.7309   27.8881 C   0  0  0  0  0  0  0  0  0  0  0  0
   -7.3377    5.8421   28.5537 C   0  0  0  0  0  0  0  0  0  0  0  0
   -8.6411    6.2609   28.3972 C   0  0  0  0  0  0  0  0  0  0  0  0
  -10.0493    3.4953   26.2711 C   0  0  0  0  0  0  0  0  0  0  0  0
   -9.5633    2.5387   25.5194 C   0  0  0  0  0  0  0  0  0  0  0  0
  -10.4262    1.8626   24.6529 C   0  0  0  0  0  0  0  0  0  0  0  0
  -11.6993    2.3055   24.4259 C   0  0  0  0  0  0  0  0  0  0  0  0
  -11.3602    3.9296   25.9175 C   0  0  0  0  0  0  0  0  0  0  0  0
  -12.1697    3.3666   25.1325 C   0  0  0  0  0  0  0  0  0  0  0  0
   -9.9056    0.6440   23.8879 C   0  0  0  0  0  0  0  0  0  0  0  0
   -9.3183   -0.3271   24.3254 C   0  0  0  0  0  0  0  0  0  0  0  0
   -9.3029   -0.6120   25.6298 C   0  0  0  0  0  0  0  0  0  0  0  0
  -10.0151    0.0379   26.5837 C   0  0  0  0  0  0  0  0  0  0  0  0
  -10.2208   -0.3990   27.7816 C   0  0  0  0  0  0  0  0  0  0  0  0
   -9.8064   -1.7109   28.0969 C   0  0  0  0  0  0  0  0  0  0  0  0
   -8.9967   -2.4132   27.2700 C   0  0  0  0  0  0  0  0  0  0  0  0
   -8.8043   -1.9956   25.9742 C   0  0  0  0  0  0  0  0  0  0  0  0
   -8.3432   -0.9966   23.4201 C   0  0  0  0  0  0  0  0  0  0  0  0
   -8.2440   -2.0705   23.0719 C   0  0  0  0  0  0  0  0  0  0  0  0
   -7.2353   -2.6096   22.1762 C   0  0  0  0  0  0  0  0  0  0  0  0
   -6.3266   -1.6464   21.6794 C   0  0  0  0  0  0  0  0  0  0  0  0
   -6.3514   -0.3601   22.1308 C   0  0  0  0  0  0  0  0  0  0  0  0
   -7.2636    0.0532   22.9806 C   0  0  0  0  0  0  0  0  0  0  0  0
  -10.5279    0.6230   22.6517 O   0  0  0  0  0  0  0  0  0  0  0  0
   -5.6797    4.2149   28.0471 O   0  0  0  0  0  0  0  0  0  0  0  0
  2  7  1  0
  9 13  1  0
 13 14  1  0
 14 21  1  0
 13 27  2  0
  4 28  1  0
 14 15  1  0
  7  8  2  0
  8  9  1  0
  9 10  2  0
 10 12  1  0
 12 11  2  0
 11  7  1  0
  1  2  2  0
  2  3  1  0
  3  6  2  0
  6  5  1  0
  5  4  2  0
  4  1  1  0
 15 16  2  0
 16 17  1  0
 17 18  2  0
 18 19  1  0
 19 20  2  0
 20 15  1  0
 21 22  2  0
 22 23  1  0
 23 24  2  0
 24 25  1  0
 25 26  2  0
 26 21  1  0
M  END
$$$$
