No_5125-complexes_sdf/6BKW-FPZ/2024-09-17-14-21-01/
     RDKit          3D

 23 25  0  0  0  0  0  0  0  0999 V2000
   -7.9040    3.9820   27.1177 C   0  0  0  0  0  0  0  0  0  0  0  0
   -7.8663    4.8694   27.9238 C   0  0  0  0  0  0  0  0  0  0  0  0
   -7.4547    2.7080   27.4594 C   0  0  0  0  0  0  0  0  0  0  0  0
   -8.7044    6.0412   27.8492 C   0  0  0  0  0  0  0  0  0  0  0  0
   -7.9501    1.5743   26.8848 C   0  0  0  0  0  0  0  0  0  0  0  0
   -8.8711    1.7575   25.8527 C   0  0  0  0  0  0  0  0  0  0  0  0
   -9.3585    2.9740   25.5109 C   0  0  0  0  0  0  0  0  0  0  0  0
   -8.8963    4.1169   26.2090 C   0  0  0  0  0  0  0  0  0  0  0  0
   -9.5489    5.3391   26.1902 C   0  0  0  0  0  0  0  0  0  0  0  0
   -9.3820    6.3910   26.9038 C   0  0  0  0  0  0  0  0  0  0  0  0
   -7.3369    0.2514   27.1196 C   0  0  0  0  0  0  0  0  0  0  0  0
   -6.0578    0.1272   27.6729 C   0  0  0  0  0  0  0  0  0  0  0  0
   -5.1721    1.2607   27.9156 C   0  0  0  0  0  0  0  0  0  0  0  0
   -5.9798    2.5859   27.8522 C   0  0  0  0  0  0  0  0  0  0  0  0
   -4.1428    1.2822   28.5036 F   0  0  0  0  0  0  0  0  0  0  0  0
  -10.3859    3.1196   24.4598 C   0  0  1  0  0  0  0  0  0  0  0  0
  -11.6513    3.9695   24.5487 Cl  0  0  0  0  0  0  0  0  0  0  0  0
  -10.0211    2.5267   23.1873 C   0  0  0  0  0  0  0  0  0  0  0  0
  -10.5399    3.0297   22.0030 C   0  0  0  0  0  0  0  0  0  0  0  0
  -10.8685    4.3373   21.8689 C   0  0  0  0  0  0  0  0  0  0  0  0
  -11.5028    4.9807   22.9333 C   0  0  0  0  0  0  0  0  0  0  0  0
  -12.2080    5.9695   22.9967 F   0  0  0  0  0  0  0  0  0  0  0  0
  -10.6121    6.0309   23.1210 F   0  0  0  0  0  0  0  0  0  0  0  0
 13 15  1  0
  7 16  1  0
 16 17  1  6
 16 18  1  0
 18 19  2  3
 19 20  1  0
 20 21  2  3
 21 22  1  0
 21 23  1  0
  1  3  1  0
  5  6  1  0
  6  7  2  0
  7  8  1  0
  3  5  2  0
  5 11  1  0
 11 12  2  0
 12 13  1  0
 13 14  2  0
 14  3  1  0
  1  2  2  0
  2  4  1  0
  4 10  2  0
 10  9  1  0
  9  8  2  0
  8  1  1  0
M  END
$$$$
