No_5006-complexes_sdf/6BKW-FPZ/2024-09-17-14-21-01/
     RDKit          3D

 25 28  0  0  0  0  0  0  0  0999 V2000
   -7.9040    3.9820   27.1177 C   0  0  0  0  0  0  0  0  0  0  0  0
   -9.0711    4.3164   27.0630 C   0  0  0  0  0  0  0  0  0  0  0  0
  -10.0395    3.8218   27.1938 C   0  0  0  0  0  0  0  0  0  0  0  0
   -7.6424    2.5858   27.3610 C   0  0  0  0  0  0  0  0  0  0  0  0
   -8.7741    1.7889   27.4566 C   0  0  0  0  0  0  0  0  0  0  0  0
  -10.0155    2.3581   27.4300 C   0  0  0  0  0  0  0  0  0  0  0  0
   -9.1463    5.9504   26.8742 C   0  0  0  0  0  0  0  0  0  0  0  0
   -9.2055    6.3507   25.5991 F   0  0  0  0  0  0  0  0  0  0  0  0
   -7.9896    6.6014   27.3747 F   0  0  0  0  0  0  0  0  0  0  0  0
  -10.1744    6.4911   27.5896 F   0  0  0  0  0  0  0  0  0  0  0  0
   -6.2232    2.1336   27.3353 C   0  0  1  0  0  0  0  0  0  0  0  0
   -5.7905    1.3984   28.4692 C   0  0  0  0  0  0  0  0  0  0  0  0
   -4.8530    0.4050   28.1426 C   0  0  2  0  0  0  0  0  0  0  0  0
   -4.3370   -0.3104   29.2107 C   0  0  0  0  0  0  0  0  0  0  0  0
   -4.7590   -0.4648   30.2113 C   0  0  0  0  0  0  0  0  0  0  0  0
   -4.1512   -1.2680   31.3649 C   0  0  0  0  0  0  0  0  0  0  0  0
   -4.6615   -1.2558   32.6941 C   0  0  0  0  0  0  0  0  0  0  0  0
   -3.9425   -1.3872   33.7430 C   0  0  0  0  0  0  0  0  0  0  0  0
   -2.5492   -1.8191   33.5549 C   0  0  0  0  0  0  0  0  0  0  0  0
   -2.0067   -1.8622   32.3331 C   0  0  0  0  0  0  0  0  0  0  0  0
   -2.7397   -1.4236   31.2329 C   0  0  0  0  0  0  0  0  0  0  0  0
   -2.1631   -1.2570   29.9680 C   0  0  0  0  0  0  0  0  0  0  0  0
   -2.8967   -0.5557   28.9554 C   0  0  0  0  0  0  0  0  0  0  0  0
   -4.3808    0.7998   27.0446 C   0  0  0  0  0  0  0  0  0  0  0  0
   -5.2781    1.6554   26.3916 O   0  0  0  0  0  0  0  0  0  0  0  0
  2  7  1  0
  7  8  1  0
  7  9  1  0
  7 10  1  0
 11  4  1  6
 11 12  1  0
 12 13  1  0
 13 14  1  1
 13 24  1  0
 11 25  1  0
 24 25  1  0
 16 17  2  0
 17 18  1  0
 18 19  2  0
 19 20  1  0
 20 21  2  0
  1  2  2  0
  2  3  1  0
  3  6  2  0
  6  5  1  0
  5  4  2  0
  4  1  1  0
 14 15  2  0
 15 16  1  0
 16 21  1  0
 21 22  1  0
 22 23  2  0
 23 14  1  0
M  END
$$$$
