No_5660-complexes_sdf/6BKW-FPZ/2024-09-17-14-21-01/
     RDKit          3D

 18 19  0  0  0  0  0  0  0  0999 V2000
   -7.2496    3.8871   27.4508 C   0  0  0  0  0  0  0  0  0  0  0  0
   -7.6161    2.7143   27.1523 C   0  0  0  0  0  0  0  0  0  0  0  0
   -8.8302    2.4659   26.5056 C   0  0  0  0  0  0  0  0  0  0  0  0
   -8.1584    5.0090   27.3234 C   0  0  0  0  0  0  0  0  0  0  0  0
   -9.3788    4.7965   26.7695 C   0  0  0  0  0  0  0  0  0  0  0  0
   -9.7028    3.5649   26.3276 C   0  0  0  0  0  0  0  0  0  0  0  0
   -6.5671    1.3685   27.4084 Cl  0  0  0  0  0  0  0  0  0  0  0  0
   -7.7259    6.2172   27.7228 F   0  0  0  0  0  0  0  0  0  0  0  0
  -11.0181    3.3695   25.6745 C   0  0  2  0  0  0  0  0  0  0  0  0
  -11.1448    3.7608   24.3795 C   0  0  0  0  0  0  0  0  0  0  0  0
  -10.2012    4.1669   23.5905 C   0  0  0  0  0  0  0  0  0  0  0  0
  -10.3875    4.6345   22.2424 C   0  0  0  0  0  0  0  0  0  0  0  0
  -12.2673    3.4671   23.6243 C   0  0  0  0  0  0  0  0  0  0  0  0
  -12.6122    3.8638   22.3809 C   0  0  0  0  0  0  0  0  0  0  0  0
  -11.5504    4.5013   21.6612 C   0  0  0  0  0  0  0  0  0  0  0  0
  -12.0721    3.0116   26.5248 C   0  0  0  0  0  0  0  0  0  0  0  0
  -12.3632    1.6849   26.7894 C   0  0  0  0  0  0  0  0  0  0  0  0
  -13.4176    1.3371   27.6661 C   0  0  0  0  0  0  0  0  0  0  0  0
  2  7  1  0
  4  8  1  0
  9  6  1  1
  9 10  1  0
  9 16  1  0
 16 17  2  3
 17 18  1  0
  1  2  2  0
  2  3  1  0
  3  6  2  0
  6  5  1  0
  5  4  2  0
  4  1  1  0
 10 11  2  0
 11 12  1  0
 12 15  2  0
 15 14  1  0
 14 13  2  0
 13 10  1  0
M  END
$$$$
