No_5577-complexes_sdf/6BKW-FPZ/2024-09-17-14-21-01/
     RDKit          3D

 25 29  0  0  0  0  0  0  0  0999 V2000
   -7.2496    3.8871   27.4508 C   0  0  0  0  0  0  0  0  0  0  0  0
   -7.9379    4.9063   27.8518 C   0  0  0  0  0  0  0  0  0  0  0  0
   -8.7729    5.5444   27.0168 C   0  0  2  0  0  0  0  0  0  0  0  0
   -9.1978    6.9285   27.3228 C   0  0  0  0  0  0  0  0  0  0  0  0
   -7.9836    2.6310   27.3500 C   0  0  0  0  0  0  0  0  0  0  0  0
   -9.1489    2.6993   26.5232 C   0  0  0  0  0  0  0  0  0  0  0  0
   -9.9717    3.7310   26.2379 C   0  0  0  0  0  0  0  0  0  0  0  0
   -9.4582    4.8764   25.9428 C   0  0  0  0  0  0  0  0  0  0  0  0
   -9.5171    1.2918   26.0174 C   0  0  0  0  0  0  0  0  0  0  0  0
   -8.8444    0.3239   26.2636 C   0  0  0  0  0  0  0  0  0  0  0  0
   -9.2526   -1.0165   25.8672 C   0  0  0  0  0  0  0  0  0  0  0  0
  -10.9233    0.9411   26.1312 C   0  0  0  0  0  0  0  0  0  0  0  0
  -11.8482    1.8846   26.0508 C   0  0  0  0  0  0  0  0  0  0  0  0
  -11.3001    3.2938   25.8034 C   0  0  0  0  0  0  0  0  0  0  0  0
  -10.5470   -1.2349   25.6958 C   0  0  0  0  0  0  0  0  0  0  0  0
  -11.4311   -0.3238   25.9948 C   0  0  0  0  0  0  0  0  0  0  0  0
  -13.0633    1.6799   25.2281 C   0  0  0  0  0  0  0  0  0  0  0  0
  -14.0119    2.6214   25.3431 C   0  0  0  0  0  0  0  0  0  0  0  0
  -15.1628    2.4906   25.0742 C   0  0  0  0  0  0  0  0  0  0  0  0
  -13.6416    4.0080   25.8915 C   0  0  0  0  0  0  0  0  0  0  0  0
  -12.3498    4.4207   26.3638 C   0  0  0  0  0  0  0  0  0  0  0  0
  -16.2307    2.8437   25.9268 C   0  0  0  0  0  0  0  0  0  0  0  0
  -16.1405    4.1988   26.4517 C   0  0  0  0  0  0  0  0  0  0  0  0
  -14.8023    4.7676   26.4970 C   0  0  0  0  0  0  0  0  0  0  0  0
  -13.2100    0.7311   24.5247 O   0  0  0  0  0  0  0  0  0  0  0  0
  1  2  1  0
  2  3  1  0
  3  4  1  1
  1  5  1  0
  5  6  1  0
  3  8  1  0
  7  8  1  0
 13 17  1  0
 17 18  1  0
 14 21  1  0
 20 21  1  0
 17 25  2  0
  9 10  2  0
 10 11  1  0
 11 15  2  0
 15 16  1  0
 16 12  2  0
  6  7  2  0
  7 14  1  0
 14 13  2  0
 13 12  1  0
 12  9  1  0
  9  6  1  0
 18 19  2  0
 19 22  1  0
 22 23  2  0
 23 24  1  0
 24 20  2  0
 20 18  1  0
M  END
$$$$
