No_5438-complexes_sdf/6BKW-FPZ/2024-09-17-14-21-01/
     RDKit          3D

 18 19  0  0  0  0  0  0  0  0999 V2000
   -7.7129    4.2099   27.0854 C   0  0  0  0  0  0  0  0  0  0  0  0
   -8.2112    3.0637   26.9225 C   0  0  0  0  0  0  0  0  0  0  0  0
   -8.5108    5.3904   26.9436 C   0  0  0  0  0  0  0  0  0  0  0  0
   -9.7256    5.1955   26.3518 C   0  0  0  0  0  0  0  0  0  0  0  0
   -9.4995    2.8258   26.4878 C   0  0  0  0  0  0  0  0  0  0  0  0
  -10.2542    3.9691   26.2055 C   0  0  0  0  0  0  0  0  0  0  0  0
   -7.7727    6.5274   27.1833 N   0  0  0  0  0  0  0  0  0  0  0  0
   -7.6187    1.6940   27.2068 C   0  0  0  0  0  0  0  0  0  0  0  0
   -8.2303    0.5351   27.1205 C   0  0  0  0  0  0  0  0  0  0  0  0
   -7.5348   -0.6264   27.4083 C   0  0  0  0  0  0  0  0  0  0  0  0
   -6.2092   -0.5621   27.8323 C   0  0  0  0  0  0  0  0  0  0  0  0
   -5.5416    0.6612   27.9381 C   0  0  0  0  0  0  0  0  0  0  0  0
   -6.1833    1.7637   27.6653 C   0  0  0  0  0  0  0  0  0  0  0  0
   -4.1815    0.5190   28.4597 C   0  0  0  0  0  0  0  0  0  0  0  0
   -3.4049   -0.5531   28.5617 C   0  0  0  0  0  0  0  0  0  0  0  0
   -2.1291   -0.4845   29.0574 C   0  0  0  0  0  0  0  0  0  0  0  0
   -1.4405   -1.6392   29.0867 C   0  0  0  0  0  0  0  0  0  0  0  0
   -1.9006   -2.8162   28.6204 C   0  0  0  0  0  0  0  0  0  0  0  0
  3  7  1  0
  2  8  1  0
 12 14  1  0
 14 15  2  3
 15 16  1  0
 16 17  2  3
 17 18  1  0
  8  9  2  0
  9 10  1  0
 10 11  2  0
 11 12  1  0
 12 13  2  0
 13  8  1  0
  1  2  2  0
  2  5  1  0
  5  6  2  0
  6  4  1  0
  4  3  2  0
  3  1  1  0
M  END
$$$$
