No_5999-complexes_sdf/6BKW-FPZ/2024-09-17-14-21-01/
     RDKit          3D

 15 15  0  0  0  0  0  0  0  0999 V2000
   -7.9040    3.9820   27.1177 C   0  0  0  0  0  0  0  0  0  0  0  0
   -9.0711    4.3164   27.0630 C   0  0  0  0  0  0  0  0  0  0  0  0
   -9.5294    5.4517   27.7215 C   0  0  0  0  0  0  0  0  0  0  0  0
   -6.9328    4.7309   27.8881 C   0  0  0  0  0  0  0  0  0  0  0  0
   -7.3666    5.8455   28.5488 C   0  0  0  0  0  0  0  0  0  0  0  0
   -8.6669    6.2428   28.4199 C   0  0  0  0  0  0  0  0  0  0  0  0
  -10.0479    3.5083   26.2510 C   0  0  1  0  0  0  0  0  0  0  0  0
   -9.7487    3.3855   24.9113 C   0  0  0  0  0  0  0  0  0  0  0  0
   -9.6102    4.1172   24.2287 C   0  0  0  0  0  0  0  0  0  0  0  0
  -10.2754    5.4398   24.5039 C   0  0  0  0  0  0  0  0  0  0  0  0
  -11.1091    2.8639   26.8872 C   0  0  0  0  0  0  0  0  0  0  0  0
  -11.8380    3.4103   27.8819 C   0  0  0  0  0  0  0  0  0  0  0  0
  -12.8942    2.8050   28.6241 C   0  0  0  0  0  0  0  0  0  0  0  0
  -13.0455    1.4230   28.3786 C   0  0  0  0  0  0  0  0  0  0  0  0
  -12.2674    0.7929   27.4026 C   0  0  0  0  0  0  0  0  0  0  0  0
  7  2  1  1
  7  8  1  0
  8  9  2  3
  9 10  1  0
  7 11  1  0
 11 12  2  3
 12 13  1  0
 13 14  2  3
 14 15  1  0
  1  2  2  0
  2  3  1  0
  3  6  2  0
  6  5  1  0
  5  4  2  0
  4  1  1  0
M  END
$$$$
