No_5107-complexes_sdf/6BKW-FPZ/2024-09-17-14-21-01/
     RDKit          3D

 28 30  0  0  0  0  0  0  0  0999 V2000
   -7.2496    3.8871   27.4508 C   0  0  0  0  0  0  0  0  0  0  0  0
   -7.6161    2.7143   27.1523 C   0  0  0  0  0  0  0  0  0  0  0  0
   -8.8302    2.4659   26.5056 C   0  0  0  0  0  0  0  0  0  0  0  0
   -8.1584    5.0090   27.3234 C   0  0  0  0  0  0  0  0  0  0  0  0
   -7.8138    6.3406   27.7108 C   0  0  0  0  0  0  0  0  0  0  0  0
   -9.7360    3.4989   26.3531 C   0  0  0  0  0  0  0  0  0  0  0  0
   -9.3942    4.8432   26.7521 C   0  0  0  0  0  0  0  0  0  0  0  0
   -9.1857    1.0968   26.1448 C   0  0  0  0  0  0  0  0  0  0  0  0
   -9.6641    0.1591   26.9685 C   0  0  0  0  0  0  0  0  0  0  0  0
   -9.9578    0.6285   28.3831 C   0  0  0  0  0  0  0  0  0  0  0  0
   -9.9633   -1.1869   26.6550 C   0  0  0  0  0  0  0  0  0  0  0  0
   -6.7532    6.5118   28.2757 O   0  0  0  0  0  0  0  0  0  0  0  0
   -8.3718    7.3793   27.1194 O   0  0  0  0  0  0  0  0  0  0  0  0
   -9.5106   -1.6741   25.7260 C   0  0  0  0  0  0  0  0  0  0  0  0
   -8.8723   -0.7876   24.6707 C   0  0  0  0  0  0  0  0  0  0  0  0
   -8.6482    0.5732   24.8895 C   0  0  0  0  0  0  0  0  0  0  0  0
  -11.2634    0.1376   28.9393 C   0  0  0  0  0  0  0  0  0  0  0  0
  -11.5490   -1.2068   28.5764 C   0  0  0  0  0  0  0  0  0  0  0  0
  -11.0408   -1.7566   27.4184 C   0  0  0  0  0  0  0  0  0  0  0  0
  -12.6031   -1.8310   29.4023 C   0  0  0  0  0  0  0  0  0  0  0  0
  -12.7805   -2.8307   29.4494 O   0  0  0  0  0  0  0  0  0  0  0  0
  -13.3467   -0.8918   30.2210 N   0  0  0  0  0  0  0  0  0  0  0  0
  -14.3258   -1.3772   31.1463 C   0  0  0  0  0  0  0  0  0  0  0  0
  -14.7428   -0.4458   31.8827 C   0  0  0  0  0  0  0  0  0  0  0  0
  -15.5539    0.2631   31.8618 C   0  0  0  0  0  0  0  0  0  0  0  0
  -15.8849    1.4574   32.7851 C   0  0  0  0  0  0  0  0  0  0  0  0
  -15.0692    1.6372   33.8615 C   0  0  0  0  0  0  0  0  0  0  0  0
  -14.0059    0.7288   34.0776 C   0  0  0  0  0  0  0  0  0  0  0  0
  4  5  1  0
  3  8  1  0
  5 12  2  0
  5 13  1  0
 18 20  1  0
 20 21  2  0
 20 22  1  0
 22 23  1  0
 23 24  2  3
 24 25  1  0
 25 26  1  0
 26 27  2  3
 27 28  1  0
  1  2  2  0
  2  3  1  0
  3  6  2  0
  6  7  1  0
  7  4  2  0
  4  1  1  0
  9 10  2  0
 10 17  1  0
 17 18  2  0
 18 19  1  0
 19 11  2  0
  8  9  1  0
  9 11  1  0
 11 14  1  0
 14 15  2  0
 15 16  1  0
 16  8  2  0
M  END
$$$$
