No_5737-complexes_sdf/6BKW-FPZ/2024-09-17-14-21-01/
     RDKit          3D

 13 14  0  0  0  0  0  0  0  0999 V2000
   -7.7129    4.2099   27.0854 C   0  0  0  0  0  0  0  0  0  0  0  0
   -7.7814    5.1722   27.8972 C   0  0  0  0  0  0  0  0  0  0  0  0
   -8.8776    3.8408   26.3416 C   0  0  0  0  0  0  0  0  0  0  0  0
   -9.9844    4.6492   26.4743 C   0  0  0  0  0  0  0  0  0  0  0  0
   -8.7830    6.1594   27.8870 C   0  0  0  0  0  0  0  0  0  0  0  0
   -9.9269    5.8191   27.1183 C   0  0  0  0  0  0  0  0  0  0  0  0
   -8.8745    2.2683   25.3450 Br  0  0  0  0  0  0  0  0  0  0  0  0
  -11.1425    4.3422   25.6343 C   0  0  0  0  0  0  0  0  0  0  0  0
  -12.3151    3.9025   26.1700 C   0  0  0  0  0  0  0  0  0  0  0  0
  -13.4600    3.6684   25.4138 C   0  0  0  0  0  0  0  0  0  0  0  0
  -13.3290    3.7944   24.0142 C   0  0  0  0  0  0  0  0  0  0  0  0
  -11.1152    4.3412   24.1755 C   0  0  0  0  0  0  0  0  0  0  0  0
  -12.1000    4.1561   23.4349 C   0  0  0  0  0  0  0  0  0  0  0  0
  3  7  1  0
  4  8  1  0
  1  2  2  0
  2  5  1  0
  5  6  2  0
  6  4  1  0
  4  3  2  0
  3  1  1  0
  8  9  2  0
  9 10  1  0
 10 11  2  0
 11 13  1  0
 13 12  2  0
 12  8  1  0
M  END
$$$$
