No_5870-complexes_sdf/6BKW-FPZ/2024-09-17-14-21-01/
     RDKit          3D

 28 30  0  0  0  0  0  0  0  0999 V2000
   -7.7129    4.2099   27.0854 C   0  0  0  0  0  0  0  0  0  0  0  0
   -7.7814    5.1722   27.8972 C   0  0  0  0  0  0  0  0  0  0  0  0
   -7.3155    2.9700   27.6145 C   0  0  0  0  0  0  0  0  0  0  0  0
   -7.9010    1.7962   27.2023 C   0  0  0  0  0  0  0  0  0  0  0  0
   -8.9578    1.9047   26.2707 C   0  0  0  0  0  0  0  0  0  0  0  0
   -9.3989    3.1000   25.8096 C   0  0  0  0  0  0  0  0  0  0  0  0
   -8.8948    4.1615   26.3218 C   0  0  0  0  0  0  0  0  0  0  0  0
   -8.2271    6.4668   27.5438 N   0  0  0  0  0  0  0  0  0  0  0  0
   -9.0798    6.6377   26.5319 C   0  0  0  0  0  0  0  0  0  0  0  0
   -9.5047    5.4887   25.9469 C   0  0  0  0  0  0  0  0  0  0  0  0
   -7.2798    0.5007   27.5396 C   0  0  0  0  0  0  0  0  0  0  0  0
   -6.8654   -0.3091   27.0447 N   0  0  0  0  0  0  0  0  0  0  0  0
   -6.9365   -0.5749   25.7770 C   0  0  0  0  0  0  0  0  0  0  0  0
   -5.9942   -1.4628   25.1981 C   0  0  0  0  0  0  0  0  0  0  0  0
   -6.0136   -1.4942   27.6402 C   0  0  2  0  0  0  0  0  0  0  0  0
   -5.8378   -1.3518   29.0868 C   0  0  0  0  0  0  0  0  0  0  0  0
   -5.3970   -2.2813   26.7850 C   0  0  0  0  0  0  0  0  0  0  0  0
   -4.6693   -0.7421   29.6708 C   0  0  0  0  0  0  0  0  0  0  0  0
   -3.6880   -0.0609   28.8744 C   0  0  0  0  0  0  0  0  0  0  0  0
   -3.7806    0.3382   27.6085 C   0  0  0  0  0  0  0  0  0  0  0  0
   -2.4971    0.7788   26.9486 C   0  0  0  0  0  0  0  0  0  0  0  0
   -2.6818    1.5586   25.9914 F   0  0  0  0  0  0  0  0  0  0  0  0
   -1.8854   -0.0054   27.1315 F   0  0  0  0  0  0  0  0  0  0  0  0
   -6.7513   -2.0984   29.8386 C   0  0  0  0  0  0  0  0  0  0  0  0
   -6.5078   -3.1814   30.3642 C   0  0  0  0  0  0  0  0  0  0  0  0
   -5.2771   -3.7456   30.3860 C   0  0  0  0  0  0  0  0  0  0  0  0
   -5.0192   -5.0775   30.9535 C   0  0  0  0  0  0  0  0  0  0  0  0
   -6.1255   -5.6485   31.5460 C   0  0  0  0  0  0  0  0  0  0  0  0
  4 11  1  0
 11 12  1  0
 12 13  1  0
 13 14  2  0
 12 15  1  0
 15 16  1  0
 14 17  1  0
 15 17  1  6
 16 18  2  3
 18 19  1  0
 19 20  1  0
 20 21  2  3
 21 22  1  0
 21 23  1  0
 16 24  1  0
 24 25  2  3
 25 26  1  0
 26 27  2  3
 27 28  1  0
  1  2  2  0
  2  8  1  0
  8  9  2  0
  9 10  1  0
 10  7  2  0
  1  3  1  0
  3  4  2  0
  4  5  1  0
  5  6  2  0
  6  7  1  0
  7  1  1  0
M  END
$$$$
