No_5312-complexes_sdf/6BKW-FPZ/2024-09-17-14-21-01/
     RDKit          3D

 34 38  0  0  0  0  0  0  0  0999 V2000
   -7.9040    3.9820   27.1177 C   0  0  0  0  0  0  0  0  0  0  0  0
   -8.2057    2.8231   26.8733 C   0  0  0  0  0  0  0  0  0  0  0  0
   -7.4766    1.7477   27.4593 C   0  0  0  0  0  0  0  0  0  0  0  0
   -8.7468    5.1251   26.6967 C   0  0  0  0  0  0  0  0  0  0  0  0
   -9.7234    4.8589   25.8202 C   0  0  0  0  0  0  0  0  0  0  0  0
   -9.9711    3.5858   25.4266 C   0  0  0  0  0  0  0  0  0  0  0  0
   -9.2266    2.4957   25.9600 C   0  0  0  0  0  0  0  0  0  0  0  0
   -7.8394    0.3721   27.3404 C   0  0  0  0  0  0  0  0  0  0  0  0
   -8.9869    0.1878   26.4476 C   0  0  0  0  0  0  0  0  0  0  0  0
   -9.6379    1.1710   25.7653 C   0  0  0  0  0  0  0  0  0  0  0  0
   -8.3917    6.5365   27.0771 C   0  0  0  0  0  0  0  0  0  0  0  0
   -8.6764    7.5576   26.4104 N   0  0  0  0  0  0  0  0  0  0  0  0
   -7.5239    6.5981   28.1378 N   0  0  0  0  0  0  0  0  0  0  0  0
   -7.1478   -0.6588   28.0036 C   0  0  0  0  0  0  0  0  0  0  0  0
   -5.8403   -0.4845   28.4189 C   0  0  0  0  0  0  0  0  0  0  0  0
   -5.1449   -1.4893   29.1808 C   0  0  0  0  0  0  0  0  0  0  0  0
   -3.8237   -1.1972   29.6770 C   0  0  0  0  0  0  0  0  0  0  0  0
   -3.2234    0.0322   29.3294 C   0  0  0  0  0  0  0  0  0  0  0  0
   -3.9396    0.9922   28.6087 C   0  0  0  0  0  0  0  0  0  0  0  0
   -5.1507    0.7599   28.1881 C   0  0  0  0  0  0  0  0  0  0  0  0
   -5.8663    1.9152   27.7019 N   0  0  0  0  0  0  0  0  0  0  0  0
   -7.7842   -1.9461   28.1223 C   0  0  0  0  0  0  0  0  0  0  0  0
   -7.6007   -2.8998   27.1266 C   0  0  0  0  0  0  0  0  0  0  0  0
   -8.3130   -3.9320   27.0492 C   0  0  0  0  0  0  0  0  0  0  0  0
   -8.6056   -2.1976   29.1858 C   0  0  0  0  0  0  0  0  0  0  0  0
   -9.3895   -3.3412   29.2845 C   0  0  0  0  0  0  0  0  0  0  0  0
   -9.2204   -4.2610   28.1792 C   0  0  0  0  0  0  0  0  0  0  0  0
   -9.9946   -5.5039   28.1482 C   0  0  0  0  0  0  0  0  0  0  0  0
  -10.2588   -6.1809   27.3541 O   0  0  0  0  0  0  0  0  0  0  0  0
  -10.4988   -5.8576   29.4272 O   0  0  0  0  0  0  0  0  0  0  0  0
  -10.6847    0.7927   24.8535 C   0  0  0  0  0  0  0  0  0  0  0  0
  -10.8834   -0.3021   24.5797 N   0  0  0  0  0  0  0  0  0  0  0  0
  -11.8090   -0.9243   23.9907 C   0  0  0  0  0  0  0  0  0  0  0  0
  -11.8958   -2.3284   23.8392 C   0  0  0  0  0  0  0  0  0  0  0  0
  2  3  1  0
  8  9  1  0
  7 10  1  0
  9 10  1  0
  4 11  1  0
 11 12  2  0
 11 13  1  0
 14 22  1  0
 27 28  1  0
 28 29  2  0
 28 30  1  0
 10 31  1  0
 31 32  1  0
 32 33  1  0
 33 34  2  0
 15 16  1  0
 16 17  2  0
 17 18  1  0
 18 19  2  0
 19 20  1  0
  3  8  2  0
  8 14  1  0
 14 15  2  0
 15 20  1  0
 20 21  2  0
 21  3  1  0
  1  2  2  0
  2  7  1  0
  7  6  2  0
  6  5  1  0
  5  4  2  0
  4  1  1  0
 22 23  2  0
 23 24  1  0
 24 27  2  0
 27 26  1  0
 26 25  2  0
 25 22  1  0
M  END
$$$$
