No_5257-complexes_sdf/6BKW-FPZ/2024-09-17-14-21-01/
     RDKit          3D

 25 28  0  0  0  0  0  0  0  0999 V2000
   -7.9040    3.9820   27.1177 C   0  0  0  0  0  0  0  0  0  0  0  0
   -7.8663    4.8694   27.9238 C   0  0  0  0  0  0  0  0  0  0  0  0
   -9.0501    3.8017   26.2617 C   0  0  0  0  0  0  0  0  0  0  0  0
  -10.0189    4.7608   26.3707 C   0  0  0  0  0  0  0  0  0  0  0  0
   -8.6770    5.9780   27.9222 C   0  0  0  0  0  0  0  0  0  0  0  0
   -9.8040    5.8752   27.0958 C   0  0  0  0  0  0  0  0  0  0  0  0
   -9.1240    2.7551   25.4860 F   0  0  0  0  0  0  0  0  0  0  0  0
   -7.0058    2.8956   27.1332 O   0  0  0  0  0  0  0  0  0  0  0  0
   -7.3633    1.5650   26.9807 C   0  0  0  0  0  0  0  0  0  0  0  0
   -6.2338    0.7277   27.1890 C   0  0  0  0  0  0  0  0  0  0  0  0
   -5.1644    1.2480   27.9784 C   0  0  0  0  0  0  0  0  0  0  0  0
   -4.0024    0.4142   28.2723 C   0  0  0  0  0  0  0  0  0  0  0  0
   -3.1948    0.7632   29.1391 C   0  0  0  0  0  0  0  0  0  0  0  0
   -3.9416   -0.7521   27.5219 C   0  0  0  0  0  0  0  0  0  0  0  0
   -4.9576   -1.2431   26.6892 C   0  0  0  0  0  0  0  0  0  0  0  0
   -6.1039   -0.4312   26.5423 C   0  0  0  0  0  0  0  0  0  0  0  0
   -2.3017   -0.3275   29.7239 C   0  0  0  0  0  0  0  0  0  0  0  0
   -1.9273   -1.3426   28.9029 C   0  0  0  0  0  0  0  0  0  0  0  0
   -2.8440   -1.7029   27.8209 C   0  0  0  0  0  0  0  0  0  0  0  0
   -7.1467   -0.9093   25.6283 C   0  0  0  0  0  0  0  0  0  0  0  0
   -7.6467   -1.8653   25.6800 C   0  0  0  0  0  0  0  0  0  0  0  0
   -8.7383   -2.2644   24.8058 C   0  0  0  0  0  0  0  0  0  0  0  0
   -9.1425   -1.4518   24.0903 C   0  0  0  0  0  0  0  0  0  0  0  0
   -8.6537   -0.1107   23.8515 C   0  0  0  0  0  0  0  0  0  0  0  0
   -7.5774    0.2303   24.7215 C   0  0  0  0  0  0  0  0  0  0  0  0
  3  7  1  0
  1  8  1  0
  8  9  1  0
  9 10  1  0
 16 20  1  0
 10 11  2  0
 11 12  1  0
 14 15  1  0
 15 16  2  0
 16 10  1  0
 12 13  2  0
 13 17  1  0
 17 18  2  0
 18 19  1  0
 19 14  2  0
 14 12  1  0
  1  2  2  0
  2  5  1  0
  5  6  2  0
  6  4  1  0
  4  3  2  0
  3  1  1  0
 20 21  2  0
 21 22  1  0
 22 23  2  0
 23 24  1  0
 24 25  2  0
 25 20  1  0
M  END
$$$$
