No_5216-complexes_sdf/6BKW-FPZ/2024-09-17-14-21-01/
     RDKit          3D

 14 14  0  0  0  0  0  0  0  0999 V2000
   -7.2496    3.8871   27.4508 C   0  0  0  0  0  0  0  0  0  0  0  0
   -7.6161    2.7143   27.1523 C   0  0  0  0  0  0  0  0  0  0  0  0
   -8.6212    2.2239   26.4073 C   0  0  0  0  0  0  0  0  0  0  0  0
   -8.2540    4.9237   27.1711 C   0  0  0  0  0  0  0  0  0  0  0  0
   -9.3729    4.5806   26.4432 C   0  0  0  0  0  0  0  0  0  0  0  0
   -9.5830    3.2968   26.1025 C   0  0  0  0  0  0  0  0  0  0  0  0
   -7.8801    6.5457   27.6185 Cl  0  0  0  0  0  0  0  0  0  0  0  0
   -8.8699    0.8883   26.0645 C   0  0  0  0  0  0  0  0  0  0  0  0
   -9.1009    0.5705   24.9026 C   0  0  0  0  0  0  0  0  0  0  0  0
   -9.8468    1.2142   24.0229 C   0  0  0  0  0  0  0  0  0  0  0  0
  -10.1709    0.6702   22.7907 C   0  0  0  0  0  0  0  0  0  0  0  0
  -10.9554    1.4046   21.7787 C   0  0  0  0  0  0  0  0  0  0  0  0
  -11.3142    2.6927   22.1638 C   0  0  0  0  0  0  0  0  0  0  0  0
  -10.9934    3.2905   23.2986 C   0  0  0  0  0  0  0  0  0  0  0  0
  4  7  1  0
  3  8  1  0
  8  9  1  0
  9 10  2  3
 10 11  1  0
 11 12  2  3
 12 13  1  0
 13 14  2  0
  1  2  2  0
  2  3  1  0
  3  6  2  0
  6  5  1  0
  5  4  2  0
  4  1  1  0
M  END
$$$$
