No_5901-complexes_sdf/6BKW-FPZ/2024-09-17-14-21-01/
     RDKit          3D

 29 32  0  0  0  0  0  0  0  0999 V2000
   -7.7129    4.2099   27.0854 C   0  0  0  0  0  0  0  0  0  0  0  0
   -7.7814    5.1722   27.8972 C   0  0  0  0  0  0  0  0  0  0  0  0
   -8.7889    3.2468   27.2220 C   0  0  0  0  0  0  0  0  0  0  0  0
   -9.8671    3.4455   28.0317 C   0  0  0  0  0  0  0  0  0  0  0  0
   -8.9592    5.6476   28.6200 C   0  0  0  0  0  0  0  0  0  0  0  0
  -10.9901    2.5851   28.1488 C   0  0  0  0  0  0  0  0  0  0  0  0
   -9.9540    4.6963   28.7213 C   0  0  0  0  0  0  0  0  0  0  0  0
  -10.9086    1.2979   27.8714 C   0  0  0  0  0  0  0  0  0  0  0  0
  -11.9717    0.3949   28.1090 C   0  0  0  0  0  0  0  0  0  0  0  0
  -13.1257    0.9150   28.7114 C   0  0  0  0  0  0  0  0  0  0  0  0
  -12.2723    2.9458   28.8280 C   0  0  0  0  0  0  0  0  0  0  0  0
  -13.2362    2.2020   29.0887 C   0  0  0  0  0  0  0  0  0  0  0  0
  -14.4896    2.6868   29.7283 C   0  0  0  0  0  0  0  0  0  0  0  0
  -14.7377    2.5147   30.8565 C   0  0  0  0  0  0  0  0  0  0  0  0
  -13.9615    2.0568   31.7462 C   0  0  0  0  0  0  0  0  0  0  0  0
  -14.2333    1.9642   33.2348 C   0  0  2  0  0  0  0  0  0  0  0  0
  -13.1872    1.8152   34.1472 C   0  0  0  0  0  0  0  0  0  0  0  0
  -15.3542    3.3163   28.6972 C   0  0  0  0  0  0  0  0  0  0  0  0
  -15.1232    3.2675   27.6057 F   0  0  0  0  0  0  0  0  0  0  0  0
  -16.5510    3.9574   29.1845 C   0  0  0  0  0  0  0  0  0  0  0  0
  -16.8601    3.8382   30.5498 C   0  0  0  0  0  0  0  0  0  0  0  0
  -15.9646    3.2199   31.4350 C   0  0  0  0  0  0  0  0  0  0  0  0
  -12.7393    2.9523   34.9031 C   0  0  0  0  0  0  0  0  0  0  0  0
  -11.9659    3.6014   34.6080 C   0  0  0  0  0  0  0  0  0  0  0  0
  -11.4041    4.7870   35.4365 C   0  0  0  0  0  0  0  0  0  0  0  0
  -12.0527    5.0711   36.6363 C   0  0  0  0  0  0  0  0  0  0  0  0
  -13.4384    3.1268   36.2385 C   0  0  0  0  0  0  0  0  0  0  0  0
  -13.0274    4.1831   37.0733 C   0  0  0  0  0  0  0  0  0  0  0  0
  -15.4291    1.1489   33.5387 C   0  0  0  0  0  0  0  0  0  0  0  0
  4  6  1  0
 12 13  1  0
 15 16  1  0
 16 17  1  0
 18 19  1  0
 17 23  1  0
 16 29  1  6
 15 14  1  0
 13 14  2  0
 14 22  1  0
 22 21  2  0
 21 20  1  0
 20 18  2  0
 18 13  1  0
  6  8  2  0
  8  9  1  0
  9 10  2  0
 10 12  1  0
 12 11  2  0
 11  6  1  0
 23 24  2  0
 24 25  1  0
 25 26  2  0
 26 28  1  0
 28 27  2  0
 27 23  1  0
  1  2  2  0
  2  5  1  0
  5  7  2  0
  7  4  1  0
  4  3  2  0
  3  1  1  0
M  END
$$$$
