No_5899-complexes_sdf/6BKW-FPZ/2024-09-17-14-21-01/
     RDKit          3D

 40 47  0  0  0  0  0  0  0  0999 V2000
   -7.9040    3.9820   27.1177 C   0  0  0  0  0  0  0  0  0  0  0  0
   -7.8663    4.8694   27.9238 C   0  0  0  0  0  0  0  0  0  0  0  0
   -9.0806    3.1428   27.1220 C   0  0  2  0  0  0  0  0  0  0  0  0
   -8.9544    1.8782   26.5468 C   0  0  0  0  0  0  0  0  0  0  0  0
   -8.9948    5.7403   28.1705 C   0  0  0  0  0  0  0  0  0  0  0  0
   -9.9359    1.0372   26.4454 C   0  0  0  0  0  0  0  0  0  0  0  0
  -10.2581    5.0954   27.9858 C   0  0  0  0  0  0  0  0  0  0  0  0
  -10.2344    3.8558   27.3571 C   0  0  2  0  0  0  0  0  0  0  0  0
  -11.1890    1.4394   26.9397 C   0  0  2  0  0  0  0  0  0  0  0  0
  -11.4299    2.8779   27.4115 C   0  0  1  0  0  0  0  0  0  0  0  0
  -12.0812    2.8780   28.8210 C   0  0  0  0  0  0  0  0  0  0  0  0
  -12.3357    3.5490   26.3177 C   0  0  0  0  0  0  0  0  0  0  0  0
  -12.2883    0.5182   27.1714 C   0  0  0  0  0  0  0  0  0  0  0  0
  -12.5642    0.2414   28.5132 C   0  0  1  0  0  0  0  0  0  0  0  0
  -13.1100    1.6555   29.1380 C   0  0  2  0  0  0  0  0  0  0  0  0
   -9.8233   -0.3353   26.0363 C   0  0  0  0  0  0  0  0  0  0  0  0
   -8.9798   -0.9606   25.7495 C   0  0  0  0  0  0  0  0  0  0  0  0
   -7.6304   -0.2419   25.8023 C   0  0  0  0  0  0  0  0  0  0  0  0
   -7.6668    1.1929   26.1814 C   0  0  0  0  0  0  0  0  0  0  0  0
   -6.3260   -0.7600   25.4319 C   0  0  0  0  0  0  0  0  0  0  0  0
   -5.3925   -0.5014   26.1147 O   0  0  0  0  0  0  0  0  0  0  0  0
   -6.2401   -1.4008   24.3009 O   0  0  0  0  0  0  0  0  0  0  0  0
  -13.5992    3.8082   26.6618 C   0  0  0  0  0  0  0  0  0  0  0  0
  -11.7988    3.8354   25.0799 C   0  0  0  0  0  0  0  0  0  0  0  0
  -14.3760    4.0816   25.9863 C   0  0  0  0  0  0  0  0  0  0  0  0
  -12.7425    4.3407   24.1338 C   0  0  0  0  0  0  0  0  0  0  0  0
  -14.0093    4.5547   24.5776 C   0  0  0  0  0  0  0  0  0  0  0  0
  -14.4647    1.9444   28.6407 C   0  0  0  0  0  0  0  0  0  0  0  0
  -15.2573    1.0092   28.5571 C   0  0  1  0  0  0  0  0  0  0  0  0
  -16.5668    1.2612   28.0638 C   0  0  1  0  0  0  0  0  0  0  0  0
  -17.0263    0.5601   27.0159 C   0  0  0  0  0  0  0  0  0  0  0  0
  -16.5539   -0.7317   26.7661 C   0  0  0  0  0  0  0  0  0  0  0  0
  -15.3073   -1.0674   27.3674 C   0  0  0  0  0  0  0  0  0  0  0  0
  -14.6753   -0.1876   28.2118 C   0  0  2  0  0  0  0  0  0  0  0  0
  -13.4513   -0.7174   28.8144 O   0  0  0  0  0  0  0  0  0  0  0  0
  -11.2613   -0.1175   29.4177 C   0  0  0  0  0  0  0  0  0  0  0  0
  -15.6609    0.6231   30.1827 C   0  0  0  0  0  0  0  0  0  0  0  0
  -16.2788    1.5736   30.7838 C   0  0  0  0  0  0  0  0  0  0  0  0
  -17.4448    2.1211   30.1268 C   0  0  0  0  0  0  0  0  0  0  0  0
  -17.5991    2.0457   28.7773 C   0  0  0  0  0  0  0  0  0  0  0  0
  1  2  1  0
  3  1  1  6
  3  4  1  0
  2  5  1  0
  5  7  1  0
  3  8  1  0
  8  7  1  1
  6  9  1  0
  8 10  1  0
  9 10  1  0
 10 11  1  0
 10 12  1  6
  9 13  1  1
 13 14  1  0
 15 11  1  6
 14 15  1  0
 18 20  1  0
 20 21  2  0
 20 22  1  0
 15 28  1  0
 29 28  1  1
 29 30  1  0
 31 32  1  0
 29 34  1  0
 34 33  1  1
 14 35  1  0
 34 35  1  0
 14 36  1  1
 29 37  1  0
 38 39  1  0
 30 40  1  1
 40 39  1  0
 38 37  1  0
 30 31  1  0
 32 33  1  0
 12 23  2  0
 23 25  1  0
 25 27  2  0
 27 26  1  0
 26 24  2  0
 24 12  1  0
  4 19  2  0
 19 18  1  0
 18 17  2  0
 17 16  1  0
 16  6  2  0
  6  4  1  0
M  END
$$$$
