No_5387-complexes_sdf/6BKW-FPZ/2024-09-17-14-21-01/
     RDKit          3D

 27 30  0  0  0  0  0  0  0  0999 V2000
   -7.2496    3.8871   27.4508 C   0  0  0  0  0  0  0  0  0  0  0  0
   -7.9379    4.9063   27.8518 C   0  0  0  0  0  0  0  0  0  0  0  0
   -9.3376    4.8647   27.7795 C   0  0  0  0  0  0  0  0  0  0  0  0
   -7.8544    2.6294   27.0414 C   0  0  0  0  0  0  0  0  0  0  0  0
   -9.2852    2.6570   27.0666 C   0  0  0  0  0  0  0  0  0  0  0  0
  -10.0126    3.7528   27.4890 C   0  0  0  0  0  0  0  0  0  0  0  0
   -9.7790    1.2782   26.6853 C   0  0  0  0  0  0  0  0  0  0  0  0
   -9.2847    0.2915   26.7645 C   0  0  0  0  0  0  0  0  0  0  0  0
   -7.7703    0.3275   26.9340 C   0  0  0  0  0  0  0  0  0  0  0  0
   -7.1246    1.5225   27.1206 C   0  0  0  0  0  0  0  0  0  0  0  0
  -11.4750    3.6788   27.5711 C   0  0  0  0  0  0  0  0  0  0  0  0
  -12.1852    3.9091   28.5728 C   0  0  0  0  0  0  0  0  0  0  0  0
  -13.4300    3.6765   28.7385 C   0  0  0  0  0  0  0  0  0  0  0  0
  -14.2100    3.5816   27.5841 C   0  0  0  0  0  0  0  0  0  0  0  0
  -12.2086    3.5262   26.3536 C   0  0  0  0  0  0  0  0  0  0  0  0
  -13.5608    3.5296   26.3693 C   0  0  0  0  0  0  0  0  0  0  0  0
   -7.3164    6.0513   28.1608 F   0  0  0  0  0  0  0  0  0  0  0  0
   -7.0064   -0.9699   26.8186 C   0  0  0  0  0  0  0  0  0  0  0  0
   -5.8883   -1.0744   27.3816 C   0  0  0  0  0  0  0  0  0  0  0  0
   -5.4306   -0.0259   28.3108 C   0  0  0  0  0  0  0  0  0  0  0  0
   -5.8161    1.3747   27.8856 C   0  0  0  0  0  0  0  0  0  0  0  0
   -4.2850   -0.0788   29.2279 C   0  0  0  0  0  0  0  0  0  0  0  0
   -3.6907   -1.2209   29.4312 C   0  0  0  0  0  0  0  0  0  0  0  0
   -4.2186   -2.0265   30.3396 C   0  0  0  0  0  0  0  0  0  0  0  0
   -5.0080   -1.5128   31.2789 C   0  0  0  0  0  0  0  0  0  0  0  0
   -4.7194   -1.5643   32.6563 C   0  0  0  0  0  0  0  0  0  0  0  0
   -5.6800   -1.0286   33.6528 C   0  0  0  0  0  0  0  0  0  0  0  0
  6 11  1  0
  2 17  1  0
 20 22  1  0
 22 23  1  0
 23 24  1  0
 24 25  1  0
 25 26  2  3
 26 27  1  0
  5  7  2  0
  7  8  1  0
  8  9  2  0
 10  4  2  0
  1  2  2  0
  2  3  1  0
  3  6  2  0
  6  5  1  0
  5  4  1  0
  4  1  1  0
  9 10  1  0
 10 21  1  0
 21 20  2  0
 20 19  1  0
 19 18  2  0
 18  9  1  0
 11 12  2  0
 12 13  1  0
 13 14  2  0
 14 16  1  0
 16 15  2  0
 15 11  1  0
M  END
$$$$
