No_5890-complexes_sdf/6BKW-FPZ/2024-09-17-14-21-01/
     RDKit          3D

 16 17  0  0  0  0  0  0  0  0999 V2000
   -7.9040    3.9820   27.1177 C   0  0  0  0  0  0  0  0  0  0  0  0
   -7.8663    4.8694   27.9238 C   0  0  0  0  0  0  0  0  0  0  0  0
   -9.0491    3.8523   26.2542 C   0  0  0  0  0  0  0  0  0  0  0  0
   -8.7661    5.9491   27.9690 C   0  0  0  0  0  0  0  0  0  0  0  0
   -9.9295    4.8502   26.2323 C   0  0  0  0  0  0  0  0  0  0  0  0
   -9.8077    5.9288   27.0933 C   0  0  0  0  0  0  0  0  0  0  0  0
   -6.9606    2.7994   27.1981 C   0  0  0  0  0  0  0  0  0  0  0  0
   -7.3659    1.5557   26.7971 N   0  0  0  0  0  0  0  0  0  0  0  0
   -5.8015    2.9067   27.7610 N   0  0  0  0  0  0  0  0  0  0  0  0
   -6.7780    0.4710   27.0649 C   0  0  0  0  0  0  0  0  0  0  0  0
   -4.9907    1.8305   28.0499 C   0  0  0  0  0  0  0  0  0  0  0  0
   -7.1553   -0.8225   26.7082 C   0  0  0  0  0  0  0  0  0  0  0  0
   -5.4884    0.5631   27.7173 C   0  0  0  0  0  0  0  0  0  0  0  0
   -8.0489   -1.5350   26.6197 P   0  0  0  0  0  0  0  0  0  0  0  0
   -9.1014   -1.3283   27.6073 O   0  0  0  0  0  0  0  0  0  0  0  0
   -8.9633   -1.2305   25.2612 O   0  0  0  0  0  0  0  0  0  0  0  0
  1  7  1  0
 10 12  1  0
 12 14  2  0
 14 15  1  0
 14 16  1  0
  1  2  2  0
  2  4  1  0
  4  6  2  0
  6  5  1  0
  5  3  2  0
  3  1  1  0
  7  8  2  0
  8 10  1  0
 10 13  2  0
 13 11  1  0
 11  9  2  0
  9  7  1  0
M  END
$$$$
