No_5771-complexes_sdf/6BKW-FPZ/2024-09-17-14-21-01/
     RDKit          3D

 20 21  0  0  0  0  0  0  0  0999 V2000
   -7.7129    4.2099   27.0854 C   0  0  0  0  0  0  0  0  0  0  0  0
   -8.2112    3.0637   26.9225 C   0  0  0  0  0  0  0  0  0  0  0  0
   -9.4446    2.8304   26.1868 C   0  0  0  0  0  0  0  0  0  0  0  0
   -6.6388    4.5347   28.1123 C   0  0  0  0  0  0  0  0  0  0  0  0
   -9.9906    1.5071   26.0590 C   0  0  0  0  0  0  0  0  0  0  0  0
   -9.2595    0.4699   26.6610 C   0  0  0  0  0  0  0  0  0  0  0  0
   -8.1435    0.6276   27.3940 C   0  0  0  0  0  0  0  0  0  0  0  0
   -7.6037    1.9863   27.5259 C   0  0  0  0  0  0  0  0  0  0  0  0
   -8.4471    5.4389   26.6223 C   0  0  0  0  0  0  0  0  0  0  0  0
   -8.1538    6.7415   27.1520 C   0  0  0  0  0  0  0  0  0  0  0  0
   -8.9380    7.7799   26.5801 C   0  0  0  0  0  0  0  0  0  0  0  0
  -10.0326   -1.2648   26.5272 Br  0  0  0  0  0  0  0  0  0  0  0  0
   -6.6514    5.7579   28.6863 N   0  0  0  0  0  0  0  0  0  0  0  0
   -7.2197    6.7858   28.2170 C   0  0  0  0  0  0  0  0  0  0  0  0
   -7.6221   -0.4848   27.9272 O   0  0  0  0  0  0  0  0  0  0  0  0
   -6.2289   -0.4685   28.0660 C   0  0  0  0  0  0  0  0  0  0  0  0
   -5.7296   -1.2849   29.1474 C   0  0  0  0  0  0  0  0  0  0  0  0
   -4.3434   -1.1651   29.4584 C   0  0  0  0  0  0  0  0  0  0  0  0
   -3.4783   -0.3236   28.6774 C   0  0  0  0  0  0  0  0  0  0  0  0
   -2.1183   -0.1738   28.8581 C   0  0  0  0  0  0  0  0  0  0  0  0
  6 12  1  0
  7 15  1  0
 15 16  1  0
 16 17  2  3
 17 18  1  0
 18 19  2  3
 19 20  1  0
 11 10  1  0
  2  1  1  0
  1  4  2  0
  4 13  1  0
 13 14  2  0
 14 10  1  0
 10  9  2  0
  9  1  1  0
  2  3  2  0
  3  5  1  0
  5  6  2  0
  6  7  1  0
  7  8  2  0
  8  2  1  0
M  END
$$$$
