No_5955-complexes_sdf/6BKW-FPZ/2024-09-17-14-21-01/
     RDKit          3D

 40 44  0  0  0  0  0  0  0  0999 V2000
   -7.9040    3.9820   27.1177 C   0  0  0  0  0  0  0  0  0  0  0  0
   -9.0711    4.3164   27.0630 C   0  0  0  0  0  0  0  0  0  0  0  0
   -9.9692    3.7224   26.1073 C   0  0  0  0  0  0  0  0  0  0  0  0
   -6.9787    4.6761   28.1003 C   0  0  0  0  0  0  0  0  0  0  0  0
   -9.4538    2.6801   25.3673 C   0  0  0  0  0  0  0  0  0  0  0  0
   -8.1927    2.1957   25.6621 C   0  0  0  0  0  0  0  0  0  0  0  0
   -7.4333    2.8255   26.6299 C   0  0  0  0  0  0  0  0  0  0  0  0
  -10.3181    2.0008   24.3846 C   0  0  0  0  0  0  0  0  0  0  0  0
   -9.7182    1.2105   23.5031 C   0  0  0  0  0  0  0  0  0  0  0  0
  -10.4449    0.6689   22.4496 C   0  0  0  0  0  0  0  0  0  0  0  0
   -9.8257   -0.2450   21.5070 C   0  0  0  0  0  0  0  0  0  0  0  0
   -8.5030   -0.6332   21.7375 C   0  0  0  0  0  0  0  0  0  0  0  0
   -7.7696   -0.1226   22.7768 C   0  0  0  0  0  0  0  0  0  0  0  0
   -8.3711    0.8039   23.6638 C   0  0  0  0  0  0  0  0  0  0  0  0
   -7.6324    1.2922   24.8408 C   0  0  0  0  0  0  0  0  0  0  0  0
   -7.4813    5.8223   28.6649 N   0  0  0  0  0  0  0  0  0  0  0  0
   -5.8090    4.3383   28.2863 O   0  0  0  0  0  0  0  0  0  0  0  0
  -11.3374    2.9385   23.7846 C   0  0  0  0  0  0  0  0  0  0  0  0
  -11.1882    3.9132   22.9611 C   0  0  0  0  0  0  0  0  0  0  0  0
   -9.8263    4.4898   22.6167 C   0  0  0  0  0  0  0  0  0  0  0  0
  -12.3986    4.4921   22.3719 C   0  0  0  0  0  0  0  0  0  0  0  0
  -13.4342    4.7646   23.1903 C   0  0  0  0  0  0  0  0  0  0  0  0
  -14.6734    5.2471   22.6747 C   0  0  0  0  0  0  0  0  0  0  0  0
  -14.7328    5.3876   21.3036 C   0  0  0  0  0  0  0  0  0  0  0  0
  -13.6915    4.9607   20.4684 C   0  0  0  0  0  0  0  0  0  0  0  0
  -12.5085    4.5377   21.0005 C   0  0  0  0  0  0  0  0  0  0  0  0
   -6.5181   -0.5414   22.9545 O   0  0  0  0  0  0  0  0  0  0  0  0
   -6.2097   -1.7417   23.6430 C   0  0  0  0  0  0  0  0  0  0  0  0
   -5.5516   -1.5959   24.8349 C   0  0  0  0  0  0  0  0  0  0  0  0
   -4.9720   -2.5948   25.4314 C   0  0  0  0  0  0  0  0  0  0  0  0
   -5.0847   -3.8759   24.8662 C   0  0  0  0  0  0  0  0  0  0  0  0
   -5.7126   -4.0209   23.6407 C   0  0  0  0  0  0  0  0  0  0  0  0
   -6.2312   -2.8992   22.9648 C   0  0  0  0  0  0  0  0  0  0  0  0
  -10.5514   -0.7528   20.3895 C   0  0  0  0  0  0  0  0  0  0  0  0
  -11.3160   -1.7567   20.6034 N   0  0  0  0  0  0  0  0  0  0  0  0
  -11.6105   -2.4278   21.3738 C   0  0  0  0  0  0  0  0  0  0  0  0
  -11.2966   -2.3465   22.5347 C   0  0  0  0  0  0  0  0  0  0  0  0
  -11.6878   -3.3783   23.6559 C   0  0  0  0  0  0  0  0  0  0  0  0
  -12.3571   -4.3909   23.2008 C   0  0  0  0  0  0  0  0  0  0  0  0
  -12.7760   -4.5500   21.9077 C   0  0  0  0  0  0  0  0  0  0  0  0
  1  4  1  0
  4 16  2  0
  4 17  1  0
  8 18  1  0
 18 19  2  3
 19 20  1  0
 19 21  1  0
 13 27  1  0
 27 28  1  0
 11 34  1  0
 34 35  1  0
 35 36  1  0
 36 37  2  3
 37 38  1  0
 38 39  2  3
 39 40  1  0
  6 15  1  0
 15 14  2  0
  9  8  2  0
  8  5  1  0
  1  2  2  0
  2  3  1  0
  3  5  2  0
  5  6  1  0
  6  7  2  0
  7  1  1  0
  9 10  1  0
 10 11  2  0
 11 12  1  0
 12 13  2  0
 13 14  1  0
 14  9  1  0
 28 29  2  0
 29 30  1  0
 30 31  2  0
 31 32  1  0
 32 33  2  0
 33 28  1  0
 21 22  2  0
 22 23  1  0
 23 24  2  0
 24 25  1  0
 25 26  2  0
 26 21  1  0
M  END
$$$$
