No_5708-complexes_sdf/6BKW-FPZ/2024-09-17-14-21-01/
     RDKit          3D

 25 26  0  0  0  0  0  0  0  0999 V2000
   -7.2496    3.8871   27.4508 C   0  0  0  0  0  0  0  0  0  0  0  0
   -7.9379    4.9063   27.8518 C   0  0  0  0  0  0  0  0  0  0  0  0
   -7.5112    6.1898   27.6280 C   0  0  0  0  0  0  0  0  0  0  0  0
   -9.3085    4.6933   28.2930 C   0  0  0  0  0  0  0  0  0  0  0  0
   -7.7804    2.5137   27.6845 C   0  0  0  0  0  0  0  0  0  0  0  0
   -7.0499    1.4112   27.1570 C   0  0  0  0  0  0  0  0  0  0  0  0
   -7.2197    0.1763   27.6296 C   0  0  0  0  0  0  0  0  0  0  0  0
   -6.1690   -0.5748   28.1018 C   0  0  0  0  0  0  0  0  0  0  0  0
   -4.8313   -0.0998   27.9271 C   0  0  0  0  0  0  0  0  0  0  0  0
   -4.6566    1.2271   27.7050 C   0  0  0  0  0  0  0  0  0  0  0  0
   -5.7233    2.0618   27.3971 C   0  0  0  0  0  0  0  0  0  0  0  0
   -9.9539    3.4606   28.3425 C   0  0  0  0  0  0  0  0  0  0  0  0
   -9.1836    2.4030   27.9739 C   0  0  0  0  0  0  0  0  0  0  0  0
   -3.7484   -0.9454   28.4599 C   0  0  0  0  0  0  0  0  0  0  0  0
   -2.6456   -0.9282   28.2102 F   0  0  0  0  0  0  0  0  0  0  0  0
   -3.7633   -0.8469   29.9089 F   0  0  0  0  0  0  0  0  0  0  0  0
   -4.1080   -2.2829   28.1932 F   0  0  0  0  0  0  0  0  0  0  0  0
  -11.3292    3.2830   28.8076 C   0  0  0  0  0  0  0  0  0  0  0  0
  -12.3750    3.2894   27.8691 C   0  0  0  0  0  0  0  0  0  0  0  0
  -12.8877    2.2385   27.6594 C   0  0  0  0  0  0  0  0  0  0  0  0
  -13.3598    1.3326   28.3234 C   0  0  0  0  0  0  0  0  0  0  0  0
  -13.7996   -0.0132   27.9649 C   0  0  0  0  0  0  0  0  0  0  0  0
  -14.1258   -0.9862   28.8062 C   0  0  0  0  0  0  0  0  0  0  0  0
  -14.0960   -0.7362   30.2214 C   0  0  0  0  0  0  0  0  0  0  0  0
  -13.7850    0.4920   30.7129 C   0  0  0  0  0  0  0  0  0  0  0  0
  2  3  1  0
  5  6  1  0
  9 14  1  0
 14 15  1  0
 14 16  1  0
 14 17  1  0
 12 18  1  0
 18 19  1  0
 19 20  1  0
 20 21  2  3
 21 22  1  0
 22 23  2  3
 23 24  1  0
 24 25  2  0
  6  7  2  0
  7  8  1  0
  8  9  2  0
  9 10  1  0
 10 11  2  0
 11  6  1  0
  1  2  2  0
  2  4  1  0
  4 12  2  0
 12 13  1  0
 13  5  2  0
  5  1  1  0
M  END
$$$$
