No_5400-complexes_sdf/6BKW-FPZ/2024-09-17-14-21-01/
     RDKit          3D

 18 18  0  0  0  0  0  0  0  0999 V2000
   -7.2496    3.8871   27.4508 C   0  0  0  0  0  0  0  0  0  0  0  0
   -8.5096    4.0291   27.2770 C   0  0  0  0  0  0  0  0  0  0  0  0
   -9.2677    5.1714   27.5773 C   0  0  0  0  0  0  0  0  0  0  0  0
   -9.2765    2.8248   26.8371 C   0  0  0  0  0  0  0  0  0  0  0  0
   -8.6731    1.7312   26.5464 C   0  0  0  0  0  0  0  0  0  0  0  0
   -6.4843    4.9385   27.9268 F   0  0  0  0  0  0  0  0  0  0  0  0
   -7.2369    1.5771   26.8234 C   0  0  0  0  0  0  0  0  0  0  0  0
   -6.5139    2.6795   27.3291 C   0  0  0  0  0  0  0  0  0  0  0  0
   -8.6337    6.4286   27.3822 C   0  0  0  0  0  0  0  0  0  0  0  0
  -10.6238    5.0902   28.0433 C   0  0  0  0  0  0  0  0  0  0  0  0
   -6.5303    0.3004   26.6615 C   0  0  0  0  0  0  0  0  0  0  0  0
   -6.8141   -0.3153   25.6326 F   0  0  0  0  0  0  0  0  0  0  0  0
   -6.9451   -0.5277   27.7551 F   0  0  0  0  0  0  0  0  0  0  0  0
   -5.2480    0.3844   26.9021 F   0  0  0  0  0  0  0  0  0  0  0  0
   -7.3696    6.5095   26.8932 C   0  0  0  0  0  0  0  0  0  0  0  0
   -7.2086    8.0439   26.7341 C   0  0  0  0  0  0  0  0  0  0  0  0
  -11.5042    4.0860   27.5686 C   0  0  0  0  0  0  0  0  0  0  0  0
  -12.8001    3.9225   27.8714 C   0  0  0  0  0  0  0  0  0  0  0  0
  2  3  1  0
  1  6  1  0
  3  9  1  0
  3 10  1  0
  7 11  1  0
 11 12  1  0
 11 13  1  0
 11 14  1  0
  9 15  1  0
 15 16  1  0
 10 17  2  3
 17 18  1  0
  1  2  2  0
  2  4  1  0
  4  5  2  0
  5  7  1  0
  7  8  2  0
  8  1  1  0
M  END
$$$$
