No_5266-complexes_sdf/6BKW-FPZ/2024-09-17-14-21-01/
     RDKit          3D

 39 43  0  0  0  0  0  0  0  0999 V2000
   -7.2496    3.8871   27.4508 C   0  0  0  0  0  0  0  0  0  0  0  0
   -7.9379    4.9063   27.8518 C   0  0  0  0  0  0  0  0  0  0  0  0
   -9.3460    4.8223   27.8695 C   0  0  0  0  0  0  0  0  0  0  0  0
   -7.8628    2.6163   27.1065 C   0  0  0  0  0  0  0  0  0  0  0  0
   -9.2787    2.5744   27.1970 C   0  0  0  0  0  0  0  0  0  0  0  0
  -10.0108    3.6770   27.6340 C   0  0  0  0  0  0  0  0  0  0  0  0
  -11.4855    3.5731   27.7420 C   0  0  0  0  0  0  0  0  0  0  0  0
  -11.9299    2.8562   28.8221 C   0  0  0  0  0  0  0  0  0  0  0  0
  -13.2794    2.8349   29.2460 C   0  0  0  0  0  0  0  0  0  0  0  0
  -14.1511    3.6034   28.4508 C   0  0  0  0  0  0  0  0  0  0  0  0
  -13.7255    4.3534   27.3763 C   0  0  0  0  0  0  0  0  0  0  0  0
  -12.3282    4.4505   27.0679 C   0  0  0  0  0  0  0  0  0  0  0  0
   -7.1207    1.4580   26.7810 C   0  0  0  0  0  0  0  0  0  0  0  0
   -7.2764    0.2988   27.5586 C   0  0  0  0  0  0  0  0  0  0  0  0
   -8.3538   -0.4395   27.4668 C   0  0  0  0  0  0  0  0  0  0  0  0
   -8.4693   -1.5137   27.9651 C   0  0  0  0  0  0  0  0  0  0  0  0
   -7.4681   -2.0931   28.8348 C   0  0  0  0  0  0  0  0  0  0  0  0
   -6.2723   -1.3970   28.9091 C   0  0  0  0  0  0  0  0  0  0  0  0
   -6.0869   -0.2238   28.2416 C   0  0  0  0  0  0  0  0  0  0  0  0
   -4.8213    0.5197   28.3700 C   0  0  0  0  0  0  0  0  0  0  0  0
   -4.2359    0.6204   29.4070 O   0  0  0  0  0  0  0  0  0  0  0  0
   -4.3309    0.9632   27.1977 O   0  0  0  0  0  0  0  0  0  0  0  0
   -7.3259    6.1024   28.1127 O   0  0  0  0  0  0  0  0  0  0  0  0
  -13.7598    1.9814   30.3408 C   0  0  2  0  0  0  0  0  0  0  0  0
  -13.7076    2.5087   31.4316 O   0  0  0  0  0  0  0  0  0  0  0  0
  -14.3517    2.0288   32.5849 C   0  0  0  0  0  0  0  0  0  0  0  0
  -13.9697    2.6876   33.7305 C   0  0  0  0  0  0  0  0  0  0  0  0
  -13.4109    2.0264   34.8003 C   0  0  0  0  0  0  0  0  0  0  0  0
  -12.8271    2.6807   35.9564 C   0  0  0  0  0  0  0  0  0  0  0  0
  -12.7128    4.1168   35.9299 C   0  0  0  0  0  0  0  0  0  0  0  0
  -13.2444    4.8098   34.8378 C   0  0  0  0  0  0  0  0  0  0  0  0
  -13.7789    4.1060   33.7514 C   0  0  0  0  0  0  0  0  0  0  0  0
  -12.1541    4.8031   37.1015 C   0  0  0  0  0  0  0  0  0  0  0  0
  -12.9544    5.0241   38.2252 C   0  0  0  0  0  0  0  0  0  0  0  0
  -12.4189    5.6619   39.2665 C   0  0  0  0  0  0  0  0  0  0  0  0
  -11.0654    6.1820   39.2931 C   0  0  0  0  0  0  0  0  0  0  0  0
  -10.2478    5.8881   38.1905 C   0  0  0  0  0  0  0  0  0  0  0  0
  -10.7714    5.2208   37.0788 C   0  0  0  0  0  0  0  0  0  0  0  0
  -13.7500    0.8128   30.2113 F   0  0  0  0  0  0  0  0  0  0  0  0
  6  7  1  0
  4 13  1  0
 13 14  1  0
 19 20  1  0
 20 21  2  0
 20 22  1  0
  2 23  1  0
  9 24  1  0
 24 25  1  0
 25 26  1  0
 26 27  1  0
 30 33  1  0
 24 39  1  1
  1  2  2  0
  2  3  1  0
  3  6  2  0
  6  5  1  0
  5  4  2  0
  4  1  1  0
 33 34  2  0
 34 35  1  0
 35 36  2  0
 36 37  1  0
 37 38  2  0
 38 33  1  0
  7  8  2  0
  8  9  1  0
  9 10  2  0
 10 11  1  0
 11 12  2  0
 12  7  1  0
 14 15  2  0
 15 16  1  0
 16 17  2  0
 17 18  1  0
 18 19  2  0
 19 14  1  0
 27 28  2  0
 28 29  1  0
 29 30  2  0
 30 31  1  0
 31 32  2  0
 32 27  1  0
M  END
$$$$
