No_520-complexes_sdf/6BKW-FPZ/2024-09-17-14-21-01/
     RDKit          3D

 18 19  0  0  0  0  0  0  0  0999 V2000
   -7.7129    4.2099   27.0854 C   0  0  0  0  0  0  0  0  0  0  0  0
   -8.2112    3.0637   26.9225 C   0  0  0  0  0  0  0  0  0  0  0  0
   -9.4446    2.8304   26.1868 C   0  0  0  0  0  0  0  0  0  0  0  0
   -8.4697    5.3956   26.7238 C   0  0  0  0  0  0  0  0  0  0  0  0
   -8.0091    6.7588   26.9904 C   0  0  0  0  0  0  0  0  0  0  0  0
  -10.1208    3.9213   25.7408 C   0  0  0  0  0  0  0  0  0  0  0  0
   -9.5939    5.2027   25.9665 C   0  0  0  0  0  0  0  0  0  0  0  0
   -8.6060    7.8403   26.5809 N   0  0  0  0  0  0  0  0  0  0  0  0
   -7.2574    6.8585   28.1911 N   0  0  0  0  0  0  0  0  0  0  0  0
   -7.5130    1.9067   27.3545 N   0  0  0  0  0  0  0  0  0  0  0  0
   -6.1960    1.9457   27.7066 C   0  0  0  0  0  0  0  0  0  0  0  0
   -5.5534    2.9595   27.8214 O   0  0  0  0  0  0  0  0  0  0  0  0
   -5.5027    0.6103   27.8545 C   0  0  0  0  0  0  0  0  0  0  0  0
   -6.2024   -0.5192   28.0174 C   0  0  0  0  0  0  0  0  0  0  0  0
   -4.0829    0.5898   28.0306 C   0  0  0  0  0  0  0  0  0  0  0  0
   -3.3952   -0.5245   28.3475 C   0  0  0  0  0  0  0  0  0  0  0  0
   -5.4907   -1.7155   28.2828 C   0  0  0  0  0  0  0  0  0  0  0  0
   -4.1260   -1.7169   28.4379 C   0  0  0  0  0  0  0  0  0  0  0  0
  4  5  1  0
  5  8  2  0
  5  9  1  0
  2 10  1  0
 10 11  1  0
 11 12  2  0
 11 13  1  0
  1  2  2  0
  2  3  1  0
  3  6  2  0
  6  7  1  0
  7  4  2  0
  4  1  1  0
 13 14  2  0
 14 17  1  0
 17 18  2  0
 18 16  1  0
 16 15  2  0
 15 13  1  0
M  END
$$$$
