No_5441-complexes_sdf/6BKW-FPZ/2024-09-17-14-21-01/
     RDKit          3D

 22 24  0  0  0  0  0  0  0  0999 V2000
   -7.9040    3.9820   27.1177 C   0  0  0  0  0  0  0  0  0  0  0  0
   -9.0711    4.3164   27.0630 C   0  0  0  0  0  0  0  0  0  0  0  0
   -9.9692    3.7224   26.1073 C   0  0  0  0  0  0  0  0  0  0  0  0
   -7.4776    2.6994   26.6283 C   0  0  0  0  0  0  0  0  0  0  0  0
   -8.4406    1.9440   25.9776 C   0  0  0  0  0  0  0  0  0  0  0  0
   -9.6379    2.5001   25.6881 C   0  0  0  0  0  0  0  0  0  0  0  0
   -6.7492    4.8329   28.2359 P   0  0  0  0  0  0  0  0  0  0  0  0
   -7.4620    6.0165   28.6627 O   0  0  0  0  0  0  0  0  0  0  0  0
   -5.5205    4.4172   28.1756 O   0  0  0  0  0  0  0  0  0  0  0  0
   -7.0659    4.1916   29.1642 O   0  0  0  0  0  0  0  0  0  0  0  0
  -10.5778    1.7641   24.7792 C   0  0  0  0  0  0  0  0  0  0  0  0
  -10.2850    0.8842   24.0945 C   0  0  0  0  0  0  0  0  0  0  0  0
   -8.8737    0.4599   24.0780 C   0  0  0  0  0  0  0  0  0  0  0  0
   -8.0168    0.8961   25.0723 C   0  0  0  0  0  0  0  0  0  0  0  0
   -8.4444   -0.7689   23.3086 C   0  0  0  0  0  0  0  0  0  0  0  0
   -7.1799   -1.0661   23.3595 C   0  0  0  0  0  0  0  0  0  0  0  0
   -6.6505   -2.0966   22.5343 C   0  0  0  0  0  0  0  0  0  0  0  0
   -5.3485   -2.5479   22.7009 C   0  0  0  0  0  0  0  0  0  0  0  0
   -5.0736   -3.6756   21.8921 C   0  0  0  0  0  0  0  0  0  0  0  0
   -5.7700   -3.9448   20.7289 C   0  0  0  0  0  0  0  0  0  0  0  0
   -6.9706   -3.3316   20.4831 C   0  0  0  0  0  0  0  0  0  0  0  0
   -7.3890   -2.3989   21.3892 C   0  0  0  0  0  0  0  0  0  0  0  0
  1  7  1  0
  7  8  1  0
  7  9  2  0
  7 10  1  0
 13 15  1  0
 15 16  2  3
 16 17  1  0
 17 18  2  0
 18 19  1  0
 19 20  2  0
 20 21  1  0
 21 22  2  0
 22 17  1  0
  1  2  2  0
  2  3  1  0
  3  6  2  0
  5  4  2  0
  4  1  1  0
  5  6  1  0
  6 11  1  0
 11 12  2  0
 12 13  1  0
 13 14  2  0
 14  5  1  0
M  END
$$$$
