No_5403-complexes_sdf/6BKW-FPZ/2024-09-17-14-21-01/
     RDKit          3D

 32 35  0  0  0  0  0  0  0  0999 V2000
   -7.2496    3.8871   27.4508 C   0  0  0  0  0  0  0  0  0  0  0  0
   -7.6161    2.7143   27.1523 C   0  0  0  0  0  0  0  0  0  0  0  0
   -7.1618    1.8631   27.5232 C   0  0  0  0  0  0  0  0  0  0  0  0
   -8.0384    5.0866   27.3232 C   0  0  0  0  0  0  0  0  0  0  0  0
   -9.1224    5.1097   26.4856 C   0  0  0  0  0  0  0  0  0  0  0  0
   -8.9186    2.6660   26.4794 C   0  0  0  0  0  0  0  0  0  0  0  0
   -9.4405    1.4100   26.0776 C   0  0  0  0  0  0  0  0  0  0  0  0
   -9.6459    3.8442   26.1282 C   0  0  0  0  0  0  0  0  0  0  0  0
   -7.0278    0.6978   27.0130 C   0  0  0  0  0  0  0  0  0  0  0  0
  -10.5753    1.1470   25.4047 C   0  0  0  0  0  0  0  0  0  0  0  0
   -8.4571    0.2723   26.3720 C   0  0  0  0  0  0  0  0  0  0  0  0
  -11.6404    1.3432   26.0732 C   0  0  0  0  0  0  0  0  0  0  0  0
  -12.8031    1.5563   25.6002 C   0  0  0  0  0  0  0  0  0  0  0  0
  -10.5324    0.9961   24.0239 C   0  0  0  0  0  0  0  0  0  0  0  0
  -11.8118    1.1798   23.3452 C   0  0  0  0  0  0  0  0  0  0  0  0
  -11.8954    0.9910   21.9110 C   0  0  0  0  0  0  0  0  0  0  0  0
  -12.9190    1.3897   24.1327 C   0  0  0  0  0  0  0  0  0  0  0  0
   -7.4725    6.4179   27.8007 C   0  0  0  0  0  0  0  0  0  0  0  0
   -8.7210   -1.0544   26.0040 C   0  0  0  0  0  0  0  0  0  0  0  0
   -8.1680   -1.4923   25.1667 F   0  0  0  0  0  0  0  0  0  0  0  0
   -9.7867   -1.4833   26.4011 F   0  0  0  0  0  0  0  0  0  0  0  0
  -10.9586    1.5005   21.1071 C   0  0  0  0  0  0  0  0  0  0  0  0
  -10.9841    2.8365   20.8309 C   0  0  0  0  0  0  0  0  0  0  0  0
  -11.5650    3.6800   21.0696 C   0  0  0  0  0  0  0  0  0  0  0  0
  -11.5702    4.6247   21.9777 C   0  0  0  0  0  0  0  0  0  0  0  0
  -10.4275    4.8344   22.8875 C   0  0  0  0  0  0  0  0  0  0  0  0
  -12.5701    3.9052   20.0562 C   0  0  0  0  0  0  0  0  0  0  0  0
   -8.1902    7.5014   27.3789 N   0  0  0  0  0  0  0  0  0  0  0  0
  -10.6222    5.7054   24.0544 C   0  0  0  0  0  0  0  0  0  0  0  0
  -14.2256    1.5476   23.4503 C   0  0  0  0  0  0  0  0  0  0  0  0
  -14.5250    1.0551   22.3719 C   0  0  0  0  0  0  0  0  0  0  0  0
  -13.2809    1.5483   21.4009 C   0  0  0  0  0  0  0  0  0  0  0  0
  7 10  1  0
  4 18  1  0
 11 19  1  0
 19 20  1  0
 19 21  1  0
 22 23  1  0
 23 24  2  3
 24 25  1  0
 25 26  2  3
 24 27  1  0
 18 28  1  0
 26 29  1  0
 22 16  1  0
  1  2  2  0
  6  8  2  0
  8  5  1  0
  5  4  2  0
  4  1  1  0
 10 12  2  0
 12 13  1  0
 13 17  2  0
 15 14  2  0
 14 10  1  0
 15 16  1  0
 16 32  2  0
 32 31  1  0
 31 30  2  0
 30 17  1  0
 17 15  1  0
  2  3  1  0
  3  9  2  0
  9 11  1  0
 11  7  2  0
  7  6  1  0
  6  2  1  0
M  END
$$$$
