No_5798-complexes_sdf/6BKW-FPZ/2024-09-17-14-21-01/
     RDKit          3D

 14 15  0  0  0  0  0  0  0  0999 V2000
   -7.7129    4.2099   27.0854 C   0  0  0  0  0  0  0  0  0  0  0  0
   -7.7814    5.1722   27.8972 C   0  0  0  0  0  0  0  0  0  0  0  0
   -8.8776    3.8408   26.3416 C   0  0  0  0  0  0  0  0  0  0  0  0
   -9.9844    4.6492   26.4743 C   0  0  0  0  0  0  0  0  0  0  0  0
   -8.7830    6.1594   27.8870 C   0  0  0  0  0  0  0  0  0  0  0  0
   -9.9269    5.8191   27.1183 C   0  0  0  0  0  0  0  0  0  0  0  0
   -8.8618    2.6242   25.5633 C   0  0  0  0  0  0  0  0  0  0  0  0
   -9.6903    1.6716   26.0432 C   0  0  0  0  0  0  0  0  0  0  0  0
   -9.4648    0.4479   25.5908 C   0  0  0  0  0  0  0  0  0  0  0  0
  -10.2157   -0.6555   26.1225 C   0  0  0  0  0  0  0  0  0  0  0  0
  -11.1490   -0.3814   27.1738 C   0  0  0  0  0  0  0  0  0  0  0  0
  -11.2840    0.8885   27.6832 C   0  0  0  0  0  0  0  0  0  0  0  0
  -10.5194    1.9339   27.2151 C   0  0  0  0  0  0  0  0  0  0  0  0
  -11.2081    4.2711   25.8426 C   0  0  0  0  0  0  0  0  0  0  0  0
  3  7  1  0
  7  8  1  0
  4 14  1  0
  8  9  2  0
  9 10  1  0
 10 11  2  0
 11 12  1  0
 12 13  2  0
 13  8  1  0
  1  2  2  0
  2  5  1  0
  5  6  2  0
  6  4  1  0
  4  3  2  0
  3  1  1  0
M  END
$$$$
