No_5927-complexes_sdf/6BKW-FPZ/2024-09-17-14-21-01/
     RDKit          3D

 27 30  0  0  0  0  0  0  0  0999 V2000
   -7.9040    3.9820   27.1177 C   0  0  0  0  0  0  0  0  0  0  0  0
   -9.0711    4.3164   27.0630 C   0  0  0  0  0  0  0  0  0  0  0  0
   -9.9692    3.7224   26.1073 C   0  0  0  0  0  0  0  0  0  0  0  0
   -7.4776    2.6994   26.6283 C   0  0  0  0  0  0  0  0  0  0  0  0
   -6.2837    2.0851   27.1779 C   0  0  0  0  0  0  0  0  0  0  0  0
   -6.0502    0.7317   27.0701 C   0  0  0  0  0  0  0  0  0  0  0  0
   -8.4220    1.8515   26.0329 C   0  0  0  0  0  0  0  0  0  0  0  0
   -9.6544    2.4706   25.6962 C   0  0  0  0  0  0  0  0  0  0  0  0
   -7.0987   -0.0497   26.4527 C   0  0  0  0  0  0  0  0  0  0  0  0
   -8.2471    0.5078   25.9297 C   0  0  0  0  0  0  0  0  0  0  0  0
   -4.8293    0.1760   27.6269 C   0  0  0  0  0  0  0  0  0  0  0  0
   -4.2725    0.5994   28.6263 O   0  0  0  0  0  0  0  0  0  0  0  0
   -4.3223   -0.8513   27.0119 O   0  0  0  0  0  0  0  0  0  0  0  0
   -9.4467    5.7963   27.4351 C   0  0  0  0  0  0  0  0  0  0  0  0
   -8.6521    6.8034   27.5031 N   0  0  0  0  0  0  0  0  0  0  0  0
   -7.3075    6.5561   27.3489 C   0  0  0  0  0  0  0  0  0  0  0  0
   -6.9635    5.1981   27.3817 N   0  0  0  0  0  0  0  0  0  0  0  0
  -10.6243    1.7060   24.9066 C   0  0  0  0  0  0  0  0  0  0  0  0
  -10.5718    1.8641   23.5171 C   0  0  0  0  0  0  0  0  0  0  0  0
  -10.8013    0.9159   22.6615 C   0  0  0  0  0  0  0  0  0  0  0  0
  -10.7527    1.1440   21.2051 C   0  0  0  0  0  0  0  0  0  0  0  0
  -10.3370    2.4226   20.7452 C   0  0  0  0  0  0  0  0  0  0  0  0
  -10.0782    3.4276   21.6621 C   0  0  0  0  0  0  0  0  0  0  0  0
  -10.1791    3.2247   23.0302 C   0  0  0  0  0  0  0  0  0  0  0  0
  -11.3978    0.8860   25.4403 O   0  0  0  0  0  0  0  0  0  0  0  0
  -11.0517    4.3507   25.7290 O   0  0  0  0  0  0  0  0  0  0  0  0
  -10.9803   -0.0689   20.1151 Cl  0  0  0  0  0  0  0  0  0  0  0  0
  2  3  1  0
  1  4  1  0
  3  8  1  0
  6 11  1  0
 11 12  2  0
 11 13  1  0
  8 18  1  0
 18 19  1  0
 18 25  2  0
  3 26  2  0
 21 27  1  0
  7  8  1  0
  4  5  2  0
  5  6  1  0
  6  9  2  0
  9 10  1  0
 10  7  2  0
  7  4  1  0
 19 20  2  0
 20 21  1  0
 21 22  2  0
 22 23  1  0
 23 24  2  0
 24 19  1  0
  1 17  2  0
 17 16  1  0
 16 15  2  0
 15 14  1  0
 14  2  2  0
  2  1  1  0
M  END
$$$$
