No_5311-complexes_sdf/6BKW-FPZ/2024-09-17-14-21-01/
     RDKit          3D

 34 38  0  0  0  0  0  0  0  0999 V2000
   -7.7129    4.2099   27.0854 C   0  0  0  0  0  0  0  0  0  0  0  0
   -8.9133    4.4736   27.0998 C   0  0  0  0  0  0  0  0  0  0  0  0
   -9.4643    5.5426   27.7628 C   0  0  0  0  0  0  0  0  0  0  0  0
   -7.2009    2.9448   26.6134 C   0  0  0  0  0  0  0  0  0  0  0  0
   -8.1365    1.9533   26.2981 C   0  0  1  0  0  0  0  0  0  0  0  0
   -9.4501    2.2651   26.2497 C   0  0  0  0  0  0  0  0  0  0  0  0
   -9.8615    3.4703   26.6763 C   0  0  2  0  0  0  0  0  0  0  0  0
   -7.5839    0.6450   25.9087 C   0  0  0  0  0  0  0  0  0  0  0  0
   -7.7259    0.2664   24.7999 O   0  0  0  0  0  0  0  0  0  0  0  0
   -6.9902   -0.0633   26.8497 O   0  0  0  0  0  0  0  0  0  0  0  0
   -6.3497   -1.1635   26.7545 C   0  0  0  0  0  0  0  0  0  0  0  0
   -6.7864   -2.3053   27.1319 C   0  0  0  0  0  0  0  0  0  0  0  0
   -6.2781   -3.3770   26.8508 C   0  0  0  0  0  0  0  0  0  0  0  0
   -5.0679   -1.0936   26.1335 C   0  0  0  0  0  0  0  0  0  0  0  0
   -4.3817   -2.2011   25.7819 C   0  0  0  0  0  0  0  0  0  0  0  0
   -4.9390   -3.4182   26.2225 C   0  0  0  0  0  0  0  0  0  0  0  0
  -11.2947    3.7697   26.6115 C   0  0  0  0  0  0  0  0  0  0  0  0
  -11.9244    3.8459   27.8739 C   0  0  0  0  0  0  0  0  0  0  0  0
  -12.0663    3.9034   25.4997 C   0  0  0  0  0  0  0  0  0  0  0  0
  -13.2787    4.1126   28.0779 C   0  0  0  0  0  0  0  0  0  0  0  0
  -13.4346    4.1923   25.5986 C   0  0  0  0  0  0  0  0  0  0  0  0
  -14.0317    4.3625   26.8888 C   0  0  0  0  0  0  0  0  0  0  0  0
  -15.4612    4.7074   26.9274 C   0  0  0  0  0  0  0  0  0  0  0  0
  -16.0592    5.1314   26.0453 C   0  0  0  0  0  0  0  0  0  0  0  0
  -15.4559    5.1202   24.6407 C   0  0  0  0  0  0  0  0  0  0  0  0
  -14.1674    4.6902   24.4878 C   0  0  0  0  0  0  0  0  0  0  0  0
   -8.1491   -2.3111   27.8673 C   0  0  0  0  0  0  0  0  0  0  0  0
   -8.0808   -1.9935   29.2069 C   0  0  0  0  0  0  0  0  0  0  0  0
   -9.3207   -2.4755   27.2025 C   0  0  0  0  0  0  0  0  0  0  0  0
   -9.4133   -2.7795   25.8727 C   0  0  0  0  0  0  0  0  0  0  0  0
  -10.5496   -2.0972   27.8249 C   0  0  0  0  0  0  0  0  0  0  0  0
  -11.5433   -1.5371   27.2799 C   0  0  0  0  0  0  0  0  0  0  0  0
  -10.6228   -2.4556   25.1752 C   0  0  0  0  0  0  0  0  0  0  0  0
  -11.7145   -1.9281   25.8640 C   0  0  0  0  0  0  0  0  0  0  0  0
  1  2  1  0
  2  3  2  0
  1  4  1  0
  4  5  1  0
  5  6  1  0
  2  7  1  0
  6  7  1  0
  5  8  1  6
  8  9  2  0
  8 10  1  0
 10 11  1  0
  7 17  1  6
 12 27  1  0
 27 28  2  0
 27 29  1  0
 17 18  2  0
 18 20  1  0
 20 22  2  0
 21 19  2  0
 19 17  1  0
 29 30  2  0
 30 33  1  0
 33 34  2  0
 34 32  1  0
 32 31  2  0
 31 29  1  0
 11 12  1  0
 12 13  2  0
 13 16  1  0
 16 15  2  0
 15 14  1  0
 14 11  2  0
 21 22  1  0
 22 23  1  0
 23 24  2  0
 24 25  1  0
 25 26  2  0
 26 21  1  0
M  END
$$$$
