No_5015-complexes_sdf/6BKW-FPZ/2024-09-17-14-21-01/
     RDKit          3D

 25 27  0  0  0  0  0  0  0  0999 V2000
   -7.2496    3.8871   27.4508 C   0  0  0  0  0  0  0  0  0  0  0  0
   -8.5096    4.0291   27.2770 C   0  0  0  0  0  0  0  0  0  0  0  0
   -9.3451    2.8786   26.9046 C   0  0  0  0  0  0  0  0  0  0  0  0
   -6.6065    2.5680   27.5073 C   0  0  0  0  0  0  0  0  0  0  0  0
   -7.4233    1.4858   27.2402 C   0  0  0  0  0  0  0  0  0  0  0  0
   -8.7362    1.6525   26.9989 C   0  0  0  0  0  0  0  0  0  0  0  0
   -9.0996    5.3741   27.2135 C   0  0  0  0  0  0  0  0  0  0  0  0
   -8.3165    6.4884   26.9031 C   0  0  0  0  0  0  0  0  0  0  0  0
   -8.8001    7.8193   27.0022 C   0  0  0  0  0  0  0  0  0  0  0  0
   -6.6023    0.2248   27.3117 C   0  0  0  0  0  0  0  0  0  0  0  0
   -7.1677   -0.9455   27.0820 C   0  0  0  0  0  0  0  0  0  0  0  0
   -6.4414   -2.1316   27.1467 C   0  0  0  0  0  0  0  0  0  0  0  0
   -5.2286    0.2483   27.5529 C   0  0  0  0  0  0  0  0  0  0  0  0
   -4.4648   -0.8779   27.6409 C   0  0  0  0  0  0  0  0  0  0  0  0
   -5.0759   -2.0833   27.4054 C   0  0  0  0  0  0  0  0  0  0  0  0
   -3.0022   -0.7657   27.8965 C   0  0  0  0  0  0  0  0  0  0  0  0
   -2.3372    0.4018   27.5318 C   0  0  0  0  0  0  0  0  0  0  0  0
   -2.3371   -1.7686   28.6273 C   0  0  0  0  0  0  0  0  0  0  0  0
   -0.9703   -1.6760   28.8409 C   0  0  0  0  0  0  0  0  0  0  0  0
   -0.3881   -2.6646   29.6150 C   0  0  0  0  0  0  0  0  0  0  0  0
   -1.0978   -3.5787   30.1063 C   0  0  0  0  0  0  0  0  0  0  0  0
   -2.9640   -2.7926   29.2526 C   0  0  0  0  0  0  0  0  0  0  0  0
   -2.3595   -3.6528   30.0263 C   0  0  0  0  0  0  0  0  0  0  0  0
   -2.4961    1.4854   28.0523 F   0  0  0  0  0  0  0  0  0  0  0  0
   -2.5935    0.5879   26.1199 F   0  0  0  0  0  0  0  0  0  0  0  0
  2  7  1  0
  7  8  2  3
  8  9  1  0
  5 10  1  0
 14 16  1  0
 16 17  2  3
 16 18  1  0
 17 24  1  0
 17 25  1  0
 18 19  2  0
 19 20  1  0
 20 21  2  0
 21 23  1  0
 23 22  2  0
 22 18  1  0
  1  2  2  0
  2  3  1  0
  3  6  2  0
  6  5  1  0
  5  4  2  0
  4  1  1  0
 10 11  2  0
 11 12  1  0
 12 15  2  0
 15 14  1  0
 14 13  2  0
 13 10  1  0
M  END
$$$$
