No_5154-complexes_sdf/6BKW-FPZ/2024-09-17-14-21-01/
     RDKit          3D

 40 44  0  0  0  0  0  0  0  0999 V2000
   -7.2496    3.8871   27.4508 C   0  0  0  0  0  0  0  0  0  0  0  0
   -7.6161    2.7143   27.1523 C   0  0  0  0  0  0  0  0  0  0  0  0
   -8.6212    2.2239   26.4073 C   0  0  0  0  0  0  0  0  0  0  0  0
   -8.2540    4.9237   27.1711 C   0  0  0  0  0  0  0  0  0  0  0  0
   -9.3729    4.5806   26.4432 C   0  0  0  0  0  0  0  0  0  0  0  0
   -9.5830    3.2969   26.1026 C   0  0  0  0  0  0  0  0  0  0  0  0
   -7.9420    6.1850   27.5089 F   0  0  0  0  0  0  0  0  0  0  0  0
   -8.8887    0.8876   26.0723 C   0  0  0  0  0  0  0  0  0  0  0  0
   -8.3609    0.1367   25.6513 C   0  0  0  0  0  0  0  0  0  0  0  0
   -8.6818   -1.2797   25.3418 C   0  0  0  0  0  0  0  0  0  0  0  0
  -10.3324    0.4909   26.4121 C   0  0  0  0  0  0  0  0  0  0  0  0
  -10.7491   -0.8099   26.2265 C   0  0  0  0  0  0  0  0  0  0  0  0
   -9.8905   -1.6687   25.6717 C   0  0  0  0  0  0  0  0  0  0  0  0
   -6.6260    1.7009   27.5668 N   0  0  0  0  0  0  0  0  0  0  0  0
   -5.3124    1.9214   27.7594 C   0  0  0  0  0  0  0  0  0  0  0  0
   -4.5727    0.7387   28.2898 C   0  0  0  0  0  0  0  0  0  0  0  0
   -5.1526   -0.0749   29.0831 C   0  0  0  0  0  0  0  0  0  0  0  0
   -4.4315   -1.0493   29.7669 C   0  0  0  0  0  0  0  0  0  0  0  0
   -3.0421   -1.0968   29.5680 C   0  0  0  0  0  0  0  0  0  0  0  0
   -2.4329   -0.2278   28.6971 C   0  0  0  0  0  0  0  0  0  0  0  0
   -3.1432    0.7692   28.1328 C   0  0  0  0  0  0  0  0  0  0  0  0
   -2.2767   -2.1486   30.3200 C   0  0  0  0  0  0  0  0  0  0  0  0
   -2.0627   -1.9937   31.4431 O   0  0  0  0  0  0  0  0  0  0  0  0
   -1.8634   -3.1772   29.6332 N   0  0  0  0  0  0  0  0  0  0  0  0
   -1.0643   -4.2248   30.3439 C   0  0  0  0  0  0  0  0  0  0  0  0
   -0.6732   -4.9624   29.6753 C   0  0  0  0  0  0  0  0  0  0  0  0
    0.1306   -6.1106   30.1242 C   0  0  0  0  0  0  0  0  0  0  0  0
    0.3429   -6.1971   31.5402 C   0  0  0  0  0  0  0  0  0  0  0  0
   -0.2128   -5.1973   32.3249 C   0  0  0  0  0  0  0  0  0  0  0  0
   -0.8863   -4.1595   31.7737 C   0  0  0  0  0  0  0  0  0  0  0  0
    1.0923   -7.3061   32.0891 C   0  0  0  0  0  0  0  0  0  0  0  0
    1.6826   -7.0433   33.1101 F   0  0  0  0  0  0  0  0  0  0  0  0
    1.9836   -7.7566   31.2065 F   0  0  0  0  0  0  0  0  0  0  0  0
    0.1308   -8.2685   32.3187 F   0  0  0  0  0  0  0  0  0  0  0  0
   -5.1122   -1.9744   30.7153 C   0  0  0  0  0  0  0  0  0  0  0  0
   -5.1846   -3.2434   30.6561 C   0  0  0  0  0  0  0  0  0  0  0  0
   -5.8842   -3.9982   31.5774 C   0  0  0  0  0  0  0  0  0  0  0  0
   -6.5362   -3.3619   32.6485 C   0  0  0  0  0  0  0  0  0  0  0  0
   -6.5064   -1.9538   32.7585 C   0  0  0  0  0  0  0  0  0  0  0  0
   -5.8167   -1.2508   31.8247 C   0  0  0  0  0  0  0  0  0  0  0  0
  4  7  1  0
  3  8  1  0
  2 14  1  0
 14 15  1  0
 15 16  1  0
 19 22  1  0
 22 23  1  0
 22 24  2  3
 24 25  1  0
 28 31  1  0
 31 32  1  0
 31 33  1  0
 31 34  1  0
 18 35  1  0
 25 26  2  0
 26 27  1  0
 27 28  2  0
 28 29  1  0
 29 30  2  0
 30 25  1  0
  1  2  2  0
  2  3  1  0
  3  6  2  0
  6  5  1  0
  5  4  2  0
  4  1  1  0
  8  9  2  0
  9 10  1  0
 10 13  2  0
 13 12  1  0
 12 11  2  0
 11  8  1  0
 35 36  2  0
 36 37  1  0
 37 38  2  0
 38 39  1  0
 39 40  2  0
 40 35  1  0
 16 17  2  0
 17 18  1  0
 18 19  2  0
 19 20  1  0
 20 21  2  0
 21 16  1  0
M  END
$$$$
