No_5233-complexes_sdf/6BKW-FPZ/2024-09-17-14-21-01/
     RDKit          3D

 19 21  0  0  0  0  0  0  0  0999 V2000
   -7.2496    3.8871   27.4508 C   0  0  0  0  0  0  0  0  0  0  0  0
   -7.9379    4.9063   27.8518 C   0  0  0  0  0  0  0  0  0  0  0  0
   -9.3376    4.8647   27.7795 C   0  0  0  0  0  0  0  0  0  0  0  0
   -7.8544    2.6294   27.0414 C   0  0  0  0  0  0  0  0  0  0  0  0
   -9.2665    2.6175   27.0340 C   0  0  0  0  0  0  0  0  0  0  0  0
   -9.9836    3.7042   27.4150 C   0  0  0  0  0  0  0  0  0  0  0  0
   -7.2589    1.4023   26.8034 C   0  0  0  0  0  0  0  0  0  0  0  0
   -7.7411    0.4366   25.9927 C   0  0  0  0  0  0  0  0  0  0  0  0
   -9.1736    0.5744   25.7750 C   0  0  0  0  0  0  0  0  0  0  0  0
   -9.9057    1.6020   26.3239 C   0  0  0  0  0  0  0  0  0  0  0  0
   -7.3449    6.0164   28.2209 F   0  0  0  0  0  0  0  0  0  0  0  0
   -9.7980   -0.5611   25.0755 C   0  0  0  0  0  0  0  0  0  0  0  0
  -10.4620   -0.4308   24.0361 C   0  0  0  0  0  0  0  0  0  0  0  0
  -10.9697    0.6687   23.6042 C   0  0  0  0  0  0  0  0  0  0  0  0
  -11.7024    0.8580   22.3128 C   0  0  0  0  0  0  0  0  0  0  0  0
  -11.7871   -0.2914   21.5739 C   0  0  0  0  0  0  0  0  0  0  0  0
  -11.2575   -1.4825   21.9378 C   0  0  0  0  0  0  0  0  0  0  0  0
  -10.5812   -1.5734   23.0883 C   0  0  0  0  0  0  0  0  0  0  0  0
   -9.6270   -1.7270   25.6734 O   0  0  0  0  0  0  0  0  0  0  0  0
  2 11  1  0
  9 12  1  0
 12 13  1  0
 12 19  2  0
  5 10  2  0
 10  9  1  0
  9  8  2  0
  8  7  1  0
  7  4  2  0
 13 14  2  0
 14 15  1  0
 15 16  2  0
 16 17  1  0
 17 18  2  0
 18 13  1  0
  1  2  2  0
  2  3  1  0
  3  6  2  0
  6  5  1  0
  5  4  1  0
  4  1  1  0
M  END
$$$$
