No_5621-complexes_sdf/6BKW-FPZ/2024-09-17-14-21-01/
     RDKit          3D

 28 31  0  0  0  0  0  0  0  0999 V2000
   -7.9040    3.9820   27.1177 C   0  0  0  0  0  0  0  0  0  0  0  0
   -7.8663    4.8694   27.9238 C   0  0  0  0  0  0  0  0  0  0  0  0
   -9.0953    3.1697   27.0532 C   0  0  0  0  0  0  0  0  0  0  0  0
  -10.1313    3.4052   27.8871 C   0  0  0  0  0  0  0  0  0  0  0  0
   -8.9489    5.3814   28.6671 C   0  0  0  0  0  0  0  0  0  0  0  0
  -10.1039    4.5714   28.7102 C   0  0  0  0  0  0  0  0  0  0  0  0
   -9.0441    1.9400   26.2104 C   0  0  0  0  0  0  0  0  0  0  0  0
   -8.4388    0.7762   26.4940 C   0  0  0  0  0  0  0  0  0  0  0  0
   -8.3712   -0.2570   25.6347 C   0  0  0  0  0  0  0  0  0  0  0  0
   -9.6553    2.0591   24.9651 C   0  0  0  0  0  0  0  0  0  0  0  0
  -10.2670    3.3094   24.5571 C   0  0  0  0  0  0  0  0  0  0  0  0
   -9.0058   -0.1012   24.3989 C   0  0  0  0  0  0  0  0  0  0  0  0
   -9.6067    1.0996   23.9793 C   0  0  0  0  0  0  0  0  0  0  0  0
  -11.3571    3.5524   24.4083 C   0  0  0  0  0  0  0  0  0  0  0  0
  -12.4554    2.7144   24.8398 C   0  0  0  0  0  0  0  0  0  0  0  0
  -13.7980    3.1539   24.6404 C   0  0  0  0  0  0  0  0  0  0  0  0
  -14.7951    2.4981   25.3028 C   0  0  0  0  0  0  0  0  0  0  0  0
  -14.4792    1.3404   26.0324 C   0  0  0  0  0  0  0  0  0  0  0  0
  -13.2073    0.8998   26.2030 C   0  0  0  0  0  0  0  0  0  0  0  0
  -12.1953    1.6312   25.7247 C   0  0  0  0  0  0  0  0  0  0  0  0
  -12.9763   -0.2867   27.0960 C   0  0  0  0  0  0  0  0  0  0  0  0
  -13.1958   -1.2646   27.0107 C   0  0  0  0  0  0  0  0  0  0  0  0
  -13.9438   -1.8028   25.8236 C   0  0  0  0  0  0  0  0  0  0  0  0
  -14.1568   -3.0920   25.7557 N   0  0  0  0  0  0  0  0  0  0  0  0
  -12.7928   -2.4559   27.8378 C   0  0  0  0  0  0  0  0  0  0  0  0
  -13.0966   -3.7172   27.7110 N   0  0  0  0  0  0  0  0  0  0  0  0
  -13.7844   -4.0096   26.6200 C   0  0  0  0  0  0  0  0  0  0  0  0
  -14.1587   -5.2285   26.3707 F   0  0  0  0  0  0  0  0  0  0  0  0
  3  7  1  0
 10 11  1  0
 11 14  2  3
 14 15  1  0
 19 21  1  0
 27 28  1  0
 21 22  1  0
 15 16  2  0
 16 17  1  0
 17 18  2  0
 18 19  1  0
 19 20  2  0
 20 15  1  0
  7  8  2  0
  8  9  1  0
  9 12  2  0
 12 13  1  0
 13 10  2  0
 10  7  1  0
  1  2  2  0
  2  5  1  0
  5  6  2  0
  6  4  1  0
  4  3  2  0
  3  1  1  0
 22 23  2  0
 23 24  1  0
 24 27  2  0
 27 26  1  0
 26 25  2  0
 25 22  1  0
M  END
$$$$
