No_5381-complexes_sdf/6BKW-FPZ/2024-09-17-14-21-01/
     RDKit          3D

 20 22  0  0  0  0  0  0  0  0999 V2000
   -7.7129    4.2099   27.0854 C   0  0  0  0  0  0  0  0  0  0  0  0
   -7.7814    5.1722   27.8972 C   0  0  0  0  0  0  0  0  0  0  0  0
   -7.3155    2.9699   27.6145 C   0  0  0  0  0  0  0  0  0  0  0  0
   -7.1760    1.9119   26.6708 C   0  0  0  0  0  0  0  0  0  0  0  0
   -8.1836    1.0062   26.8584 C   0  0  0  0  0  0  0  0  0  0  0  0
   -9.3175    1.2841   27.0470 C   0  0  0  0  0  0  0  0  0  0  0  0
  -10.4117    0.2283   27.2624 C   0  0  0  0  0  0  0  0  0  0  0  0
   -9.9629   -1.0453   27.3961 C   0  0  0  0  0  0  0  0  0  0  0  0
   -7.7806   -0.3848   26.9779 C   0  0  0  0  0  0  0  0  0  0  0  0
   -8.6738   -1.3434   27.2095 C   0  0  0  0  0  0  0  0  0  0  0  0
   -8.5859    6.2771   27.5524 C   0  0  0  0  0  0  0  0  0  0  0  0
   -8.6232    4.3197   26.0311 C   0  0  0  0  0  0  0  0  0  0  0  0
   -9.4046    5.3557   25.6119 C   0  0  0  0  0  0  0  0  0  0  0  0
   -9.3076    6.5001   26.4809 C   0  0  0  0  0  0  0  0  0  0  0  0
   -6.3363   -0.7778   26.8141 C   0  0  0  0  0  0  0  0  0  0  0  0
   -5.5010   -0.5561   27.7405 N   0  0  0  0  0  0  0  0  0  0  0  0
   -5.5705   -0.4822   28.8980 C   0  0  0  0  0  0  0  0  0  0  0  0
   -4.5629   -0.3205   29.7771 N   0  0  0  0  0  0  0  0  0  0  0  0
   -4.0702   -0.4046   27.5445 C   0  0  0  0  0  0  0  0  0  0  0  0
   -3.4969   -0.1823   28.7987 C   0  0  0  0  0  0  0  0  0  0  0  0
  1  3  1  0
  3  4  1  0
  4  5  1  0
  9 15  1  0
 15 16  1  0
 16 17  1  0
 17 18  2  0
 16 19  1  0
 18 20  1  0
 19 20  1  0
  5  6  2  0
  6  7  1  0
  7  8  2  0
  8 10  1  0
 10  9  2  0
  9  5  1  0
  1  2  2  0
  2 11  1  0
 11 14  2  0
 14 13  1  0
 13 12  2  0
 12  1  1  0
M  END
$$$$
