No_5806-complexes_sdf/6BKW-FPZ/2024-09-17-14-21-01/
     RDKit          3D

 15 16  0  0  0  0  0  0  0  0999 V2000
   -7.9040    3.9820   27.1177 C   0  0  0  0  0  0  0  0  0  0  0  0
   -8.2057    2.8231   26.8733 C   0  0  0  0  0  0  0  0  0  0  0  0
   -8.7695    5.0740   26.7916 C   0  0  0  0  0  0  0  0  0  0  0  0
   -8.4337    6.4678   27.0913 C   0  0  0  0  0  0  0  0  0  0  0  0
   -9.3742    2.4311   26.2346 C   0  0  0  0  0  0  0  0  0  0  0  0
  -10.2395    3.4267   25.8887 C   0  0  0  0  0  0  0  0  0  0  0  0
   -9.9567    4.7548   26.1374 C   0  0  0  0  0  0  0  0  0  0  0  0
   -7.8881    6.8714   28.1602 N   0  0  0  0  0  0  0  0  0  0  0  0
   -8.8773    7.6511   25.9147 Cl  0  0  0  0  0  0  0  0  0  0  0  0
   -7.2396    1.6905   27.2876 C   0  0  0  0  0  0  0  0  0  0  0  0
   -6.0208    2.0361   27.8949 C   0  0  0  0  0  0  0  0  0  0  0  0
   -5.0975    0.9750   28.2334 C   0  0  0  0  0  0  0  0  0  0  0  0
   -5.4443   -0.3231   28.0773 C   0  0  0  0  0  0  0  0  0  0  0  0
   -7.3115    0.3030   27.2375 C   0  0  0  0  0  0  0  0  0  0  0  0
   -6.6097   -0.6204   27.6079 C   0  0  0  0  0  0  0  0  0  0  0  0
  3  4  1  0
  4  8  2  0
  4  9  1  0
  2 10  1  0
 10 11  2  0
 11 12  1  0
 12 13  2  0
 13 15  1  0
 15 14  2  0
 14 10  1  0
  1  2  2  0
  2  5  1  0
  5  6  2  0
  6  7  1  0
  7  3  2  0
  3  1  1  0
M  END
$$$$
