No_5415-complexes_sdf/6BKW-FPZ/2024-09-17-14-21-01/
     RDKit          3D

 40 44  0  0  0  0  0  0  0  0999 V2000
   -7.7129    4.2099   27.0854 C   0  0  0  0  0  0  0  0  0  0  0  0
   -8.2112    3.0637   26.9225 C   0  0  0  0  0  0  0  0  0  0  0  0
   -8.5108    5.3904   26.9436 C   0  0  0  0  0  0  0  0  0  0  0  0
   -7.9752    6.6981   27.2112 C   0  0  0  0  0  0  0  0  0  0  0  0
   -7.4938    1.8178   27.3608 C   0  0  0  0  0  0  0  0  0  0  0  0
   -6.1553    2.1161   27.7669 C   0  0  0  0  0  0  0  0  0  0  0  0
   -5.7223    3.3574   27.9550 N   0  0  0  0  0  0  0  0  0  0  0  0
   -6.3892    4.3640   27.7497 C   0  0  0  0  0  0  0  0  0  0  0  0
   -5.3150    0.9307   28.1406 C   0  0  0  0  0  0  0  0  0  0  0  0
   -4.1253    1.1292   28.6593 N   0  0  0  0  0  0  0  0  0  0  0  0
   -5.6346   -0.3672   27.6592 C   0  0  0  0  0  0  0  0  0  0  0  0
   -9.7402    5.3051   26.2569 C   0  0  0  0  0  0  0  0  0  0  0  0
   -8.6701    7.8811   26.8495 C   0  0  0  0  0  0  0  0  0  0  0  0
   -6.7516   -0.7115   27.0406 C   0  0  0  0  0  0  0  0  0  0  0  0
   -7.7569    0.4658   26.8768 C   0  0  0  0  0  0  0  0  0  0  0  0
  -10.2940    4.0867   26.0728 C   0  0  0  0  0  0  0  0  0  0  0  0
   -9.5498    2.8815   26.3359 C   0  0  0  0  0  0  0  0  0  0  0  0
  -11.5787    3.9058   25.3960 C   0  0  0  0  0  0  0  0  0  0  0  0
  -11.8311    4.3580   24.3520 C   0  0  0  0  0  0  0  0  0  0  0  0
  -13.0879    4.2292   23.5822 C   0  0  0  0  0  0  0  0  0  0  0  0
  -14.0936    3.5921   24.2837 C   0  0  0  0  0  0  0  0  0  0  0  0
  -12.7229    3.2857   26.0345 C   0  0  0  0  0  0  0  0  0  0  0  0
  -13.8843    3.1859   25.5229 C   0  0  0  0  0  0  0  0  0  0  0  0
   -3.2996    0.1379   29.0937 C   0  0  0  0  0  0  0  0  0  0  0  0
   -3.2647   -0.4002   30.1474 C   0  0  0  0  0  0  0  0  0  0  0  0
   -4.1586   -0.0761   31.2572 C   0  0  0  0  0  0  0  0  0  0  0  0
   -4.1670   -0.7030   32.5006 C   0  0  0  0  0  0  0  0  0  0  0  0
   -3.1720   -1.7045   32.6923 C   0  0  0  0  0  0  0  0  0  0  0  0
   -2.2826   -2.0943   31.7477 C   0  0  0  0  0  0  0  0  0  0  0  0
   -2.2752   -1.4378   30.5174 C   0  0  0  0  0  0  0  0  0  0  0  0
   -2.5795   -0.3238   28.0110 O   0  0  0  0  0  0  0  0  0  0  0  0
  -15.0440    2.5196   26.2137 C   0  0  0  0  0  0  0  0  0  0  0  0
  -16.0285    2.5187   25.7676 F   0  0  0  0  0  0  0  0  0  0  0  0
  -15.0242    3.1438   27.4847 F   0  0  0  0  0  0  0  0  0  0  0  0
  -14.5792    1.2899   26.5147 F   0  0  0  0  0  0  0  0  0  0  0  0
   -3.1814   -2.3630   34.0728 C   0  0  0  0  0  0  0  0  0  0  0  0
   -4.1370   -2.4438   34.7294 N   0  0  0  0  0  0  0  0  0  0  0  0
   -4.6039   -2.0399   35.6086 C   0  0  0  0  0  0  0  0  0  0  0  0
   -5.9441   -2.2687   36.2473 C   0  0  0  0  0  0  0  0  0  0  0  0
   -6.8172   -3.0885   35.6834 C   0  0  0  0  0  0  0  0  0  0  0  0
  3  4  1  0
  4 13  2  0
 16 18  1  0
 10 24  1  0
 24 25  1  0
 24 31  2  0
 23 32  1  0
 32 33  1  0
 32 34  1  0
 32 35  1  0
 28 36  1  0
 36 37  1  0
 37 38  1  0
 38 39  2  3
 39 40  1  0
 10  9  1  0
 25 26  2  0
 26 27  1  0
 27 28  2  0
 28 29  1  0
 29 30  2  0
 30 25  1  0
  6  9  1  0
  9 11  2  0
 11 14  1  0
 14 15  2  0
 15  5  1  0
  2  5  2  0
  5  6  1  0
  6  7  2  0
  7  8  1  0
  8  1  2  0
  1  2  1  0
  2 17  1  0
 17 16  2  0
 16 12  1  0
 12  3  2  0
  3  1  1  0
 18 19  2  0
 19 20  1  0
 20 21  2  0
 21 23  1  0
 23 22  2  0
 22 18  1  0
M  END
$$$$
