No_5817-complexes_sdf/6BKW-FPZ/2024-09-17-14-21-01/
     RDKit          3D

 25 28  0  0  0  0  0  0  0  0999 V2000
   -7.9040    3.9820   27.1177 C   0  0  0  0  0  0  0  0  0  0  0  0
   -9.0711    4.3164   27.0630 C   0  0  0  0  0  0  0  0  0  0  0  0
   -9.5294    5.4517   27.7215 C   0  0  0  0  0  0  0  0  0  0  0  0
   -6.9328    4.7309   27.8881 C   0  0  0  0  0  0  0  0  0  0  0  0
   -7.3377    5.8421   28.5537 C   0  0  0  0  0  0  0  0  0  0  0  0
   -8.6411    6.2609   28.3972 C   0  0  0  0  0  0  0  0  0  0  0  0
  -10.0467    3.4917   26.2630 C   0  0  0  0  0  0  0  0  0  0  0  0
   -9.5472    2.5898   25.4413 C   0  0  0  0  0  0  0  0  0  0  0  0
  -10.4174    1.8980   24.6013 C   0  0  0  0  0  0  0  0  0  0  0  0
  -11.7396    2.2647   24.5006 C   0  0  0  0  0  0  0  0  0  0  0  0
  -11.4034    3.8066   25.9985 C   0  0  0  0  0  0  0  0  0  0  0  0
  -12.2164    3.2578   25.2483 C   0  0  0  0  0  0  0  0  0  0  0  0
   -9.8728    0.7624   23.7446 C   0  0  0  0  0  0  0  0  0  0  0  0
   -9.8812    0.8550   22.4779 C   0  0  0  0  0  0  0  0  0  0  0  0
   -9.2641   -0.1395   21.6736 C   0  0  0  0  0  0  0  0  0  0  0  0
   -8.6482   -1.2289   22.3023 C   0  0  0  0  0  0  0  0  0  0  0  0
   -9.1094   -0.2815   24.3889 C   0  0  0  0  0  0  0  0  0  0  0  0
   -8.5536   -1.2638   23.6770 C   0  0  0  0  0  0  0  0  0  0  0  0
   -5.6788    4.2125   28.0410 O   0  0  0  0  0  0  0  0  0  0  0  0
  -10.4482    1.9837   21.6742 C   0  0  0  0  0  0  0  0  0  0  0  0
   -9.7690    3.1626   21.5200 C   0  0  0  0  0  0  0  0  0  0  0  0
  -10.3098    4.2700   20.8123 C   0  0  0  0  0  0  0  0  0  0  0  0
  -11.4863    1.7437   20.7221 C   0  0  0  0  0  0  0  0  0  0  0  0
  -12.0163    2.7247   19.9844 C   0  0  0  0  0  0  0  0  0  0  0  0
  -11.4057    4.0132   19.9903 C   0  0  0  0  0  0  0  0  0  0  0  0
  2  7  1  0
  9 13  1  0
  4 19  1  0
 14 20  1  0
  7  8  2  0
  8  9  1  0
  9 10  2  0
 10 12  1  0
 12 11  2  0
 11  7  1  0
 20 21  2  0
 21 22  1  0
 22 25  2  0
 25 24  1  0
 24 23  2  0
 23 20  1  0
  1  2  2  0
  2  3  1  0
  3  6  2  0
  6  5  1  0
  5  4  2  0
  4  1  1  0
 13 14  1  0
 14 15  2  0
 15 16  1  0
 16 18  2  0
 18 17  1  0
 17 13  2  0
M  END
$$$$
