No_5093-complexes_sdf/6BKW-FPZ/2024-09-17-14-21-01/
     RDKit          3D

 14 15  0  0  0  0  0  0  0  0999 V2000
   -7.7129    4.2099   27.0854 C   0  0  0  0  0  0  0  0  0  0  0  0
   -8.9133    4.4736   27.0998 C   0  0  0  0  0  0  0  0  0  0  0  0
   -9.7135    3.9633   26.0300 C   0  0  0  0  0  0  0  0  0  0  0  0
   -7.1708    2.9509   26.6517 C   0  0  0  0  0  0  0  0  0  0  0  0
   -8.1338    2.1226   26.0347 C   0  0  0  0  0  0  0  0  0  0  0  0
   -9.3389    2.6863   25.6841 C   0  0  0  0  0  0  0  0  0  0  0  0
  -10.2366    1.9249   24.7890 C   0  0  0  0  0  0  0  0  0  0  0  0
   -9.7103    1.2978   23.7763 C   0  0  0  0  0  0  0  0  0  0  0  0
  -10.4807    0.5842   22.7651 C   0  0  0  0  0  0  0  0  0  0  0  0
  -11.8430    0.6223   22.8666 C   0  0  0  0  0  0  0  0  0  0  0  0
  -11.6243    2.0507   24.7833 C   0  0  0  0  0  0  0  0  0  0  0  0
  -12.4228    1.3661   23.8791 C   0  0  0  0  0  0  0  0  0  0  0  0
   -6.8922    4.8097   28.0671 F   0  0  0  0  0  0  0  0  0  0  0  0
   -9.3752    5.8985   27.5547 C   0  0  0  0  0  0  0  0  0  0  0  0
  6  7  1  0
  1 13  1  0
  2 14  1  0
  7  8  2  0
  8  9  1  0
  9 10  2  0
 10 12  1  0
 12 11  2  0
 11  7  1  0
  1  2  2  0
  2  3  1  0
  3  6  2  0
  6  5  1  0
  5  4  2  0
  4  1  1  0
M  END
$$$$
