No_5339-complexes_sdf/6BKW-FPZ/2024-09-17-14-21-01/
     RDKit          3D

 20 21  0  0  0  0  0  0  0  0999 V2000
   -7.9040    3.9820   27.1177 C   0  0  0  0  0  0  0  0  0  0  0  0
   -9.0711    4.3164   27.0630 C   0  0  0  0  0  0  0  0  0  0  0  0
   -9.5294    5.4517   27.7215 C   0  0  0  0  0  0  0  0  0  0  0  0
   -7.4336    2.7132   26.5681 C   0  0  0  0  0  0  0  0  0  0  0  0
   -8.3353    1.8569   26.0442 C   0  0  0  0  0  0  0  0  0  0  0  0
   -9.6477    2.2853   25.9146 C   0  0  0  0  0  0  0  0  0  0  0  0
  -10.0346    3.4497   26.4483 C   0  0  2  0  0  0  0  0  0  0  0  0
   -7.8750    0.5509   25.5918 C   0  0  0  0  0  0  0  0  0  0  0  0
   -6.9702    0.0164   26.1017 O   0  0  0  0  0  0  0  0  0  0  0  0
   -8.6762   -0.1044   24.8399 O   0  0  0  0  0  0  0  0  0  0  0  0
   -6.9089    4.6953   27.8699 N   0  0  0  0  0  0  0  0  0  0  0  0
   -7.2490    5.8677   28.4585 C   0  0  0  0  0  0  0  0  0  0  0  0
   -8.5645    6.2503   28.3305 N   0  0  0  0  0  0  0  0  0  0  0  0
  -11.4139    3.8860   26.1596 C   0  0  2  0  0  0  0  0  0  0  0  0
  -12.1091    4.2859   27.1061 F   0  0  0  0  0  0  0  0  0  0  0  0
  -11.9564    3.8007   24.9276 C   0  0  0  0  0  0  0  0  0  0  0  0
  -13.2816    3.7682   24.7175 C   0  0  0  0  0  0  0  0  0  0  0  0
  -13.8233    3.7339   23.4317 C   0  0  0  0  0  0  0  0  0  0  0  0
  -12.9228    3.5945   22.3574 C   0  0  0  0  0  0  0  0  0  0  0  0
  -11.5553    3.5538   22.5703 C   0  0  0  0  0  0  0  0  0  0  0  0
  1  4  1  0
  4  5  1  0
  5  6  1  0
  2  7  1  0
  7  6  1  6
  5  8  1  0
  8  9  2  0
  8 10  1  0
  7 14  1  0
 14 15  1  1
 14 16  1  0
 16 17  2  3
 17 18  1  0
 18 19  2  3
 19 20  1  0
  1  2  1  0
  2  3  2  0
  3 13  1  0
 13 12  2  0
 12 11  1  0
 11  1  2  0
M  END
$$$$
