No_5845-complexes_sdf/6BKW-FPZ/2024-09-17-14-21-01/
     RDKit          3D

 19 21  0  0  0  0  0  0  0  0999 V2000
   -7.9040    3.9820   27.1177 C   0  0  0  0  0  0  0  0  0  0  0  0
   -9.0711    4.3164   27.0630 C   0  0  0  0  0  0  0  0  0  0  0  0
   -9.5294    5.4517   27.7215 C   0  0  0  0  0  0  0  0  0  0  0  0
   -7.4336    2.7132   26.5681 C   0  0  0  0  0  0  0  0  0  0  0  0
   -8.3353    1.8569   26.0442 C   0  0  0  0  0  0  0  0  0  0  0  0
   -9.6477    2.2853   25.9146 C   0  0  0  0  0  0  0  0  0  0  0  0
  -10.0346    3.4497   26.4483 C   0  0  2  0  0  0  0  0  0  0  0  0
   -7.8750    0.5509   25.5918 C   0  0  0  0  0  0  0  0  0  0  0  0
   -8.0040    0.2730   24.4392 O   0  0  0  0  0  0  0  0  0  0  0  0
   -7.7661   -0.3864   26.5499 O   0  0  0  0  0  0  0  0  0  0  0  0
   -6.9062    4.6966   27.8702 N   0  0  0  0  0  0  0  0  0  0  0  0
   -7.2717    5.8202   28.4792 C   0  0  0  0  0  0  0  0  0  0  0  0
   -8.5691    6.2387   28.3488 N   0  0  0  0  0  0  0  0  0  0  0  0
  -11.4199    3.8846   26.1828 C   0  0  0  0  0  0  0  0  0  0  0  0
  -11.9708    4.0292   25.0353 C   0  0  0  0  0  0  0  0  0  0  0  0
  -13.3288    4.3026   24.8872 C   0  0  0  0  0  0  0  0  0  0  0  0
  -14.1224    4.6939   25.9980 C   0  0  0  0  0  0  0  0  0  0  0  0
  -13.4715    4.6959   27.3034 C   0  0  0  0  0  0  0  0  0  0  0  0
  -12.1701    4.2966   27.4501 C   0  0  0  0  0  0  0  0  0  0  0  0
  1  4  1  0
  4  5  1  0
  5  6  1  0
  2  7  1  0
  6  7  1  0
  5  8  1  0
  8  9  2  0
  8 10  1  0
  7 14  1  6
 14 15  2  0
 15 16  1  0
 16 17  2  0
 17 18  1  0
 18 19  2  0
 19 14  1  0
  1  2  1  0
  2  3  2  0
  3 13  1  0
 13 12  2  0
 12 11  1  0
 11  1  2  0
M  END
$$$$
