No_5833-complexes_sdf/6BKW-FPZ/2024-09-17-14-21-01/
     RDKit          3D

 17 17  0  0  0  0  0  0  0  0999 V2000
   -7.7129    4.2099   27.0854 C   0  0  0  0  0  0  0  0  0  0  0  0
   -8.2112    3.0637   26.9225 C   0  0  0  0  0  0  0  0  0  0  0  0
   -8.5108    5.3904   26.9436 C   0  0  0  0  0  0  0  0  0  0  0  0
   -9.5333    5.2878   26.5026 C   0  0  0  0  0  0  0  0  0  0  0  0
   -9.5076    2.8934   26.4895 C   0  0  0  0  0  0  0  0  0  0  0  0
  -10.2017    4.0665   26.2286 C   0  0  0  0  0  0  0  0  0  0  0  0
   -7.8373    6.5654   27.2524 F   0  0  0  0  0  0  0  0  0  0  0  0
   -7.3848    1.8047   27.1787 C   0  0  0  0  0  0  0  0  0  0  0  0
   -6.2328    1.9201   27.7078 O   0  0  0  0  0  0  0  0  0  0  0  0
   -7.7121    0.6172   26.6156 N   0  0  0  0  0  0  0  0  0  0  0  0
   -6.9282   -0.5766   26.8361 C   0  0  0  0  0  0  0  0  0  0  0  0
   -6.1896   -0.8083   27.7149 C   0  0  0  0  0  0  0  0  0  0  0  0
   -5.5768   -1.9990   28.0480 C   0  0  0  0  0  0  0  0  0  0  0  0
   -4.6896   -2.1616   29.1607 C   0  0  0  0  0  0  0  0  0  0  0  0
   -4.3246   -1.0337   29.9885 C   0  0  0  0  0  0  0  0  0  0  0  0
   -4.8776    0.2451   29.5927 C   0  0  0  0  0  0  0  0  0  0  0  0
   -5.6724    0.3194   28.6108 C   0  0  0  0  0  0  0  0  0  0  0  0
  3  7  1  0
  2  8  1  0
  8  9  2  0
  8 10  1  0
 10 11  1  0
 11 12  1  0
 12 13  2  3
 13 14  1  0
 14 15  2  3
 15 16  1  0
 16 17  2  0
  1  2  2  0
  2  5  1  0
  5  6  2  0
  6  4  1  0
  4  3  2  0
  3  1  1  0
M  END
$$$$
