No_5195-complexes_sdf/6BKW-FPZ/2024-09-17-14-21-01/
     RDKit          3D

 20 21  0  0  0  0  0  0  0  0999 V2000
   -7.9040    3.9820   27.1177 C   0  0  0  0  0  0  0  0  0  0  0  0
   -8.2057    2.8231   26.8733 C   0  0  0  0  0  0  0  0  0  0  0  0
   -8.7695    5.0740   26.7916 C   0  0  0  0  0  0  0  0  0  0  0  0
   -9.9618    4.7598   26.1630 C   0  0  0  0  0  0  0  0  0  0  0  0
   -9.4200    2.4524   26.2849 C   0  0  0  0  0  0  0  0  0  0  0  0
  -10.2590    3.4815   25.9250 C   0  0  0  0  0  0  0  0  0  0  0  0
   -8.3840    6.4693   27.0829 C   0  0  0  0  0  0  0  0  0  0  0  0
   -8.3637    6.7809   28.2310 F   0  0  0  0  0  0  0  0  0  0  0  0
   -9.3076    7.3337   26.4322 F   0  0  0  0  0  0  0  0  0  0  0  0
   -7.1477    6.7467   26.5861 F   0  0  0  0  0  0  0  0  0  0  0  0
   -7.2850    1.6786   27.3225 C   0  0  0  0  0  0  0  0  0  0  0  0
   -6.0824    1.9262   27.8010 N   0  0  0  0  0  0  0  0  0  0  0  0
   -5.1716    0.8009   28.0599 C   0  0  0  0  0  0  0  0  0  0  0  0
   -5.3600   -0.1651   27.8558 C   0  0  0  0  0  0  0  0  0  0  0  0
   -7.5681    0.3433   27.0364 C   0  0  0  0  0  0  0  0  0  0  0  0
   -6.6772   -0.6405   27.3379 C   0  0  0  0  0  0  0  0  0  0  0  0
   -3.9946    1.4182   28.5650 F   0  0  0  0  0  0  0  0  0  0  0  0
  -11.5082    3.2182   25.1780 C   0  0  0  0  0  0  0  0  0  0  0  0
  -12.5944    2.7223   25.8319 C   0  0  0  0  0  0  0  0  0  0  0  0
  -13.7919    2.4900   25.1514 C   0  0  0  0  0  0  0  0  0  0  0  0
  3  7  1  0
  7  8  1  0
  7  9  1  0
  7 10  1  0
  2 11  1  0
 13 17  1  0
  6 18  1  0
 18 19  2  3
 19 20  1  0
 11 12  2  0
 12 13  1  0
 13 14  2  0
 14 16  1  0
 16 15  2  0
 15 11  1  0
  1  2  2  0
  2  5  1  0
  5  6  2  0
  6  4  1  0
  4  3  2  0
  3  1  1  0
M  END
$$$$
