No_5498-complexes_sdf/6BKW-FPZ/2024-09-17-14-21-01/
     RDKit          3D

 33 37  0  0  0  0  0  0  0  0999 V2000
   -7.9040    3.9820   27.1177 C   0  0  0  0  0  0  0  0  0  0  0  0
   -8.2057    2.8231   26.8733 C   0  0  0  0  0  0  0  0  0  0  0  0
   -9.2962    2.4021   26.1155 C   0  0  0  0  0  0  0  0  0  0  0  0
   -8.7358    5.0662   26.5917 C   0  0  0  0  0  0  0  0  0  0  0  0
   -8.4603    6.4492   26.8781 C   0  0  0  0  0  0  0  0  0  0  0  0
  -10.1146    3.3815   25.6105 C   0  0  0  0  0  0  0  0  0  0  0  0
  -11.2031    3.1124   24.8108 C   0  0  0  0  0  0  0  0  0  0  0  0
   -9.8054    4.7063   25.8371 C   0  0  0  0  0  0  0  0  0  0  0  0
   -8.0378    6.8847   28.0639 N   0  0  0  0  0  0  0  0  0  0  0  0
   -8.3532    7.3668   25.9176 N   0  0  0  0  0  0  0  0  0  0  0  0
  -12.4327    3.0039   25.3567 C   0  0  0  0  0  0  0  0  0  0  0  0
  -11.0777    2.9717   23.3867 C   0  0  0  0  0  0  0  0  0  0  0  0
   -9.8738    2.9713   22.7183 C   0  0  0  0  0  0  0  0  0  0  0  0
  -12.2938    2.8094   22.6024 C   0  0  0  0  0  0  0  0  0  0  0  0
   -7.2531    1.6943   27.4547 C   0  0  0  0  0  0  0  0  0  0  0  0
   -6.0466    1.9817   27.8403 N   0  0  0  0  0  0  0  0  0  0  0  0
   -5.2393    0.9393   28.2875 C   0  0  0  0  0  0  0  0  0  0  0  0
   -5.7007   -0.3079   28.2903 C   0  0  0  0  0  0  0  0  0  0  0  0
   -7.5421    0.3250   27.4595 C   0  0  0  0  0  0  0  0  0  0  0  0
   -6.8675   -0.6302   27.9159 C   0  0  0  0  0  0  0  0  0  0  0  0
  -13.6013    2.9338   24.6352 C   0  0  0  0  0  0  0  0  0  0  0  0
  -13.5186    2.7779   23.2360 C   0  0  0  0  0  0  0  0  0  0  0  0
   -3.9506    1.3769   28.7404 N   0  0  0  0  0  0  0  0  0  0  0  0
  -14.9546    2.9131   25.2507 C   0  0  2  0  0  0  0  0  0  0  0  0
  -15.1003    2.8792   26.5198 N   0  0  0  0  0  0  0  0  0  0  0  0
  -16.0733    2.9007   27.1656 C   0  0  0  0  0  0  0  0  0  0  0  0
  -16.4957    3.1428   28.1382 C   0  0  0  0  0  0  0  0  0  0  0  0
  -17.1594    2.4325   26.4159 N   0  0  0  0  0  0  0  0  0  0  0  0
  -15.4747    3.7081   29.2294 C   0  0  0  0  0  0  0  0  0  0  0  0
  -14.1564    3.7433   28.7554 C   0  0  0  0  0  0  0  0  0  0  0  0
  -13.8894    3.4915   27.3891 C   0  0  0  0  0  0  0  0  0  0  0  0
  -16.0557    2.5442   24.5654 C   0  0  0  0  0  0  0  0  0  0  0  0
  -17.1139    2.3133   25.0995 C   0  0  0  0  0  0  0  0  0  0  0  0
  4  5  1  0
  6  7  1  0
  5  9  2  0
  5 10  1  0
 12 13  1  0
  2 15  1  0
 17 23  1  0
 24 21  1  1
 24 25  1  0
 25 26  1  0
 26 28  1  0
 27 29  1  0
 25 31  1  0
 30 31  1  0
 24 32  1  0
 28 33  1  0
 32 33  1  0
 26 27  1  0
 29 30  1  0
  7 11  2  0
 11 21  1  0
 21 22  2  0
 22 14  1  0
 14 12  2  0
 12  7  1  0
  1  2  2  0
  2  3  1  0
  3  6  2  0
  6  8  1  0
  8  4  2  0
  4  1  1  0
 15 16  2  0
 16 17  1  0
 17 18  2  0
 18 20  1  0
 20 19  2  0
 19 15  1  0
M  END
$$$$
