No_541-complexes_sdf/6BKW-FPZ/2024-09-17-14-21-01/
     RDKit          3D

 40 45  0  0  0  0  0  0  0  0999 V2000
   -7.7129    4.2099   27.0854 C   0  0  0  0  0  0  0  0  0  0  0  0
   -7.7814    5.1722   27.8972 C   0  0  0  0  0  0  0  0  0  0  0  0
   -8.8776    3.8408   26.3416 C   0  0  0  0  0  0  0  0  0  0  0  0
   -9.9844    4.6492   26.4743 C   0  0  0  0  0  0  0  0  0  0  0  0
   -8.7830    6.1594   27.8870 C   0  0  0  0  0  0  0  0  0  0  0  0
   -9.9269    5.8191   27.1183 C   0  0  0  0  0  0  0  0  0  0  0  0
   -8.8618    2.6242   25.5633 C   0  0  0  0  0  0  0  0  0  0  0  0
   -8.2819    1.4836   26.1793 C   0  0  0  0  0  0  0  0  0  0  0  0
   -8.2762    0.2624   25.5398 C   0  0  0  0  0  0  0  0  0  0  0  0
   -8.8607    0.2483   24.2552 C   0  0  0  0  0  0  0  0  0  0  0  0
   -9.4172    1.3567   23.6489 C   0  0  0  0  0  0  0  0  0  0  0  0
   -9.4133    2.5530   24.3291 C   0  0  0  0  0  0  0  0  0  0  0  0
   -9.9321    1.0746   22.3441 C   0  0  0  0  0  0  0  0  0  0  0  0
   -9.7648   -0.0201   21.6497 C   0  0  0  0  0  0  0  0  0  0  0  0
   -9.0898   -1.1354   22.2701 C   0  0  0  0  0  0  0  0  0  0  0  0
   -8.6715   -0.9821   23.5233 C   0  0  0  0  0  0  0  0  0  0  0  0
   -8.9935   -2.3751   21.4677 C   0  0  0  0  0  0  0  0  0  0  0  0
   -9.2564   -2.4399   20.2572 C   0  0  0  0  0  0  0  0  0  0  0  0
   -9.9509   -1.2797   19.6128 C   0  0  0  0  0  0  0  0  0  0  0  0
  -10.1764   -0.1531   20.2858 C   0  0  0  0  0  0  0  0  0  0  0  0
  -10.6362    2.3237   21.7398 C   0  0  0  0  0  0  0  0  0  0  0  0
  -12.0487    2.2825   21.8531 C   0  0  0  0  0  0  0  0  0  0  0  0
  -12.7038    1.9595   22.7974 C   0  0  0  0  0  0  0  0  0  0  0  0
  -13.7483    1.9208   23.2170 C   0  0  0  0  0  0  0  0  0  0  0  0
  -12.7583    2.7010   20.6359 C   0  0  0  0  0  0  0  0  0  0  0  0
  -14.6462    2.3682   22.0556 C   0  0  0  0  0  0  0  0  0  0  0  0
  -14.1433    2.7645   20.8918 C   0  0  0  0  0  0  0  0  0  0  0  0
   -9.9394    3.1531   21.1423 O   0  0  0  0  0  0  0  0  0  0  0  0
  -10.4050   -1.3950   18.1894 C   0  0  0  0  0  0  0  0  0  0  0  0
  -11.2486   -0.6579   17.8067 O   0  0  0  0  0  0  0  0  0  0  0  0
   -9.8487   -2.2743   17.3497 N   0  0  0  0  0  0  0  0  0  0  0  0
   -8.7947   -3.1752   17.6779 C   0  0  0  0  0  0  0  0  0  0  0  0
   -8.6843   -3.3674   19.2160 C   0  0  0  0  0  0  0  0  0  0  0  0
  -10.1362   -2.2048   15.9381 C   0  0  0  0  0  0  0  0  0  0  0  0
  -11.0241   -2.4507   15.4376 C   0  0  0  0  0  0  0  0  0  0  0  0
  -12.0944   -3.1745   16.1100 C   0  0  0  0  0  0  0  0  0  0  0  0
  -12.0006   -4.0424   16.7922 C   0  0  0  0  0  0  0  0  0  0  0  0
  -12.6615   -4.6429   17.4736 C   0  0  0  0  0  0  0  0  0  0  0  0
  -12.3393   -5.6543   18.5008 C   0  0  0  0  0  0  0  0  0  0  0  0
  -13.1686   -6.1904   19.4919 C   0  0  0  0  0  0  0  0  0  0  0  0
  3  7  1  0
 13 21  1  0
 21 22  1  0
 21 28  2  0
 19 29  1  0
 29 30  2  0
 29 31  1  0
 31 32  1  0
 18 33  1  0
 32 33  1  0
 31 34  1  0
 34 35  2  3
 35 36  1  0
 36 37  1  0
 37 38  2  3
 38 39  1  0
 39 40  2  0
 22 23  2  0
 23 24  1  0
 24 26  2  0
 26 27  1  0
 27 25  2  0
 25 22  1  0
  7  8  2  0
  8  9  1  0
  9 10  2  0
 11 12  2  0
 12  7  1  0
 15 17  1  0
 17 18  2  0
 18 19  1  0
 19 20  2  0
 20 14  1  0
  1  2  2  0
  2  5  1  0
  5  6  2  0
  6  4  1  0
  4  3  2  0
  3  1  1  0
 10 11  1  0
 11 13  1  0
 13 14  2  0
 14 15  1  0
 15 16  2  0
 16 10  1  0
M  END
$$$$
