No_5380-complexes_sdf/6BKW-FPZ/2024-09-17-14-21-01/
     RDKit          3D

 10 10  0  0  0  0  0  0  0  0999 V2000
   -7.7129    4.2099   27.0854 C   0  0  0  0  0  0  0  0  0  0  0  0
   -8.2112    3.0637   26.9225 C   0  0  0  0  0  0  0  0  0  0  0  0
   -8.4224    5.2106   27.8516 C   0  0  0  0  0  0  0  0  0  0  0  0
   -9.5628    2.7160   27.4089 C   0  0  0  0  0  0  0  0  0  0  0  0
  -10.0598    1.3992   27.3077 C   0  0  0  0  0  0  0  0  0  0  0  0
   -9.7708    4.9875   28.2192 C   0  0  0  0  0  0  0  0  0  0  0  0
  -10.2729    3.7070   28.0678 C   0  0  0  0  0  0  0  0  0  0  0  0
  -11.2291    1.0607   27.8012 C   0  0  0  0  0  0  0  0  0  0  0  0
  -11.9635    2.1565   28.4882 C   0  0  0  0  0  0  0  0  0  0  0  0
  -11.5290    3.3743   28.6328 C   0  0  0  0  0  0  0  0  0  0  0  0
  4  5  1  0
  5  8  2  3
  8  9  1  0
  9 10  2  0
  1  2  2  0
  2  4  1  0
  4  7  2  0
  7  6  1  0
  6  3  2  0
  3  1  1  0
M  END
$$$$
