No_5956-complexes_sdf/6BKW-FPZ/2024-09-17-14-21-01/
     RDKit          3D

 24 25  0  0  0  0  0  0  0  0999 V2000
   -7.2496    3.8871   27.4508 C   0  0  0  0  0  0  0  0  0  0  0  0
   -7.9379    4.9063   27.8518 C   0  0  0  0  0  0  0  0  0  0  0  0
   -9.3376    4.8647   27.7795 C   0  0  0  0  0  0  0  0  0  0  0  0
   -7.8544    2.6294   27.0414 C   0  0  0  0  0  0  0  0  0  0  0  0
   -9.2852    2.6570   27.0666 C   0  0  0  0  0  0  0  0  0  0  0  0
  -10.0126    3.7528   27.4890 C   0  0  0  0  0  0  0  0  0  0  0  0
  -11.4647    3.4920   27.5096 C   0  0  0  0  0  0  0  0  0  0  0  0
  -12.0054    2.4852   27.8019 C   0  0  0  0  0  0  0  0  0  0  0  0
  -11.1766    1.2209   27.5588 C   0  0  0  0  0  0  0  0  0  0  0  0
   -9.8512    1.3199   27.1694 C   0  0  0  0  0  0  0  0  0  0  0  0
   -7.3133    6.0951   28.0874 O   0  0  0  0  0  0  0  0  0  0  0  0
  -11.8598    0.0052   27.6060 O   0  0  0  0  0  0  0  0  0  0  0  0
  -11.6526   -0.8671   26.7871 C   0  0  0  0  0  0  0  0  0  0  0  0
  -11.1859   -1.7457   27.0213 C   0  0  0  0  0  0  0  0  0  0  0  0
  -12.2297   -0.6263   25.4636 C   0  0  0  0  0  0  0  0  0  0  0  0
  -10.6761   -2.1764   28.3948 C   0  0  0  0  0  0  0  0  0  0  0  0
  -11.2000   -1.6837   29.5271 C   0  0  0  0  0  0  0  0  0  0  0  0
  -13.1385    0.1322   25.2470 N   0  0  0  0  0  0  0  0  0  0  0  0
  -14.2905    0.2165   25.9082 C   0  0  0  0  0  0  0  0  0  0  0  0
  -12.9709    1.2886   24.3863 C   0  0  0  0  0  0  0  0  0  0  0  0
  -10.2508   -3.6092   28.5453 C   0  0  0  0  0  0  0  0  0  0  0  0
  -11.9537    1.3849   23.5628 C   0  0  0  0  0  0  0  0  0  0  0  0
  -11.6292    2.6210   22.9059 C   0  0  0  0  0  0  0  0  0  0  0  0
  -12.5222    3.6705   23.0237 C   0  0  0  0  0  0  0  0  0  0  0  0
  2 11  1  0
  9 12  1  0
 12 13  1  0
 13 14  2  3
 13 15  1  0
 14 16  1  0
 16 17  1  0
 15 18  1  0
 18 19  1  0
 18 20  1  0
 16 21  1  0
 20 22  2  3
 22 23  1  0
 23 24  2  0
  1  2  2  0
  2  3  1  0
  3  6  2  0
  5  4  2  0
  4  1  1  0
  5  6  1  0
  6  7  1  0
  7  8  2  0
  8  9  1  0
  9 10  2  0
 10  5  1  0
M  END
$$$$
