No_5920-complexes_sdf/6BKW-FPZ/2024-09-17-14-21-01/
     RDKit          3D

 26 29  0  0  0  0  0  0  0  0999 V2000
   -7.7129    4.2099   27.0854 C   0  0  0  0  0  0  0  0  0  0  0  0
   -7.7814    5.1722   27.8972 C   0  0  0  0  0  0  0  0  0  0  0  0
   -8.8998    3.8713   26.3707 C   0  0  0  0  0  0  0  0  0  0  0  0
   -9.9938    4.6774   26.5446 C   0  0  0  0  0  0  0  0  0  0  0  0
   -8.7789    6.1536   27.9256 C   0  0  0  0  0  0  0  0  0  0  0  0
   -9.9428    5.8398   27.2296 C   0  0  0  0  0  0  0  0  0  0  0  0
   -9.1381    2.6848   25.5884 C   0  0  0  0  0  0  0  0  0  0  0  0
   -9.8765    2.6895   24.5183 N   0  0  0  0  0  0  0  0  0  0  0  0
   -9.9310    1.5630   23.7762 C   0  0  0  0  0  0  0  0  0  0  0  0
   -8.4004    1.5498   25.8580 C   0  0  0  0  0  0  0  0  0  0  0  0
   -8.4413    0.4108   25.1400 C   0  0  0  0  0  0  0  0  0  0  0  0
   -9.2385    0.4626   24.0362 C   0  0  0  0  0  0  0  0  0  0  0  0
  -10.7459    1.6540   22.6357 N   0  0  0  0  0  0  0  0  0  0  0  0
  -10.7691    0.7918   21.6906 C   0  0  0  0  0  0  0  0  0  0  0  0
  -10.0449   -0.4619   21.8990 C   0  0  0  0  0  0  0  0  0  0  0  0
   -9.2730   -0.5822   23.0273 C   0  0  0  0  0  0  0  0  0  0  0  0
   -6.6452    5.5687   28.5868 F   0  0  0  0  0  0  0  0  0  0  0  0
   -7.6162   -0.7424   25.4731 C   0  0  0  0  0  0  0  0  0  0  0  0
   -6.5107   -0.5484   26.0926 C   0  0  0  0  0  0  0  0  0  0  0  0
   -5.6692   -1.6771   26.5012 C   0  0  0  0  0  0  0  0  0  0  0  0
   -6.0450   -2.9001   25.9944 C   0  0  0  0  0  0  0  0  0  0  0  0
   -7.8480   -1.9930   24.9965 C   0  0  0  0  0  0  0  0  0  0  0  0
   -7.1072   -3.0583   25.2997 C   0  0  0  0  0  0  0  0  0  0  0  0
  -10.0796   -1.4907   20.8839 C   0  0  0  0  0  0  0  0  0  0  0  0
  -10.6205   -1.4381   19.8965 N   0  0  0  0  0  0  0  0  0  0  0  0
  -10.5380   -2.4269   18.8981 C   0  0  0  0  0  0  0  0  0  0  0  0
  3  7  1  0
  2 17  1  0
 11 18  1  0
 15 24  1  0
 24 25  2  3
 25 26  1  0
 12 16  2  0
 16 15  1  0
 15 14  2  0
 14 13  1  0
 13  9  2  0
 18 19  2  0
 19 20  1  0
 20 21  2  0
 21 23  1  0
 23 22  2  0
 22 18  1  0
  1  2  2  0
  2  5  1  0
  5  6  2  0
  6  4  1  0
  4  3  2  0
  3  1  1  0
  7  8  2  0
  8  9  1  0
  9 12  1  0
 12 11  1  0
 11 10  2  0
 10  7  1  0
M  END
$$$$
