No_5652-complexes_sdf/6BKW-FPZ/2024-09-17-14-21-01/
     RDKit          3D

 25 27  0  0  0  0  0  0  0  0999 V2000
   -7.9040    3.9820   27.1177 C   0  0  0  0  0  0  0  0  0  0  0  0
   -7.8663    4.8694   27.9238 C   0  0  0  0  0  0  0  0  0  0  0  0
   -9.0491    3.8523   26.2542 C   0  0  0  0  0  0  0  0  0  0  0  0
   -8.7661    5.9491   27.9690 C   0  0  0  0  0  0  0  0  0  0  0  0
   -9.9295    4.8502   26.2323 C   0  0  0  0  0  0  0  0  0  0  0  0
   -9.8077    5.9288   27.0933 C   0  0  0  0  0  0  0  0  0  0  0  0
   -6.9606    2.7994   27.1981 C   0  0  0  0  0  0  0  0  0  0  0  0
   -7.2467    1.6107   27.7145 C   0  0  0  0  0  0  0  0  0  0  0  0
   -6.7435    0.5539   27.1388 C   0  0  0  0  0  0  0  0  0  0  0  0
   -6.7287   -0.6533   27.6804 C   0  0  0  0  0  0  0  0  0  0  0  0
   -7.9872   -1.2879   27.8791 C   0  0  0  0  0  0  0  0  0  0  0  0
   -9.0837   -0.3115   28.0142 C   0  0  0  0  0  0  0  0  0  0  0  0
   -8.7639    1.1224   27.7512 C   0  0  0  0  0  0  0  0  0  0  0  0
   -9.0997    2.8688   25.3933 F   0  0  0  0  0  0  0  0  0  0  0  0
  -10.6478   -0.7002   28.4546 Cl  0  0  0  0  0  0  0  0  0  0  0  0
   -5.7785   -1.5973   27.4753 F   0  0  0  0  0  0  0  0  0  0  0  0
  -10.9097    4.8574   25.3481 F   0  0  0  0  0  0  0  0  0  0  0  0
   -8.3139   -2.6123   28.1245 C   0  0  0  0  0  0  0  0  0  0  0  0
   -8.3671   -3.0782   29.3922 C   0  0  0  0  0  0  0  0  0  0  0  0
   -7.4548   -2.7178   30.3310 C   0  0  0  0  0  0  0  0  0  0  0  0
   -7.5049   -3.2060   31.7141 C   0  0  0  0  0  0  0  0  0  0  0  0
   -6.5924   -2.7608   32.7140 C   0  0  0  0  0  0  0  0  0  0  0  0
   -5.6032   -1.8054   32.3060 C   0  0  0  0  0  0  0  0  0  0  0  0
   -5.5363   -1.3566   30.9732 C   0  0  0  0  0  0  0  0  0  0  0  0
   -6.4156   -1.7699   30.1057 C   0  0  0  0  0  0  0  0  0  0  0  0
  1  7  1  0
  7  8  1  0
  3 14  1  0
 12 15  1  0
 10 16  1  0
  5 17  1  0
 11 18  1  0
 18 19  1  0
 19 20  1  0
  1  2  2  0
  2  4  1  0
  4  6  2  0
  6  5  1  0
  5  3  2  0
  3  1  1  0
  8  9  2  0
  9 10  1  0
 10 11  2  0
 11 12  1  0
 12 13  2  0
 13  8  1  0
 20 21  2  0
 21 22  1  0
 22 23  2  0
 23 24  1  0
 24 25  2  0
 25 20  1  0
M  END
$$$$
