No_5601-complexes_sdf/6BKW-FPZ/2024-09-17-14-21-01/
     RDKit          3D

 21 23  0  0  0  0  0  0  0  0999 V2000
   -7.2496    3.8871   27.4508 C   0  0  0  0  0  0  0  0  0  0  0  0
   -7.6161    2.7143   27.1523 C   0  0  0  0  0  0  0  0  0  0  0  0
   -7.1618    1.8631   27.5233 C   0  0  0  0  0  0  0  0  0  0  0  0
   -8.0036    5.1085   27.2100 C   0  0  0  0  0  0  0  0  0  0  0  0
   -9.0765    5.1561   26.4023 C   0  0  0  0  0  0  0  0  0  0  0  0
   -9.5423    3.9740   25.8512 C   0  0  0  0  0  0  0  0  0  0  0  0
   -8.8464    2.7351   26.2620 C   0  0  0  0  0  0  0  0  0  0  0  0
   -6.7990    0.7053   27.0531 C   0  0  0  0  0  0  0  0  0  0  0  0
   -6.1632   -0.1847   27.4390 C   0  0  0  0  0  0  0  0  0  0  0  0
   -5.2210    0.1226   28.4841 C   0  0  0  0  0  0  0  0  0  0  0  0
   -4.4353   -0.9425   29.1074 C   0  0  0  0  0  0  0  0  0  0  0  0
   -3.6633   -0.6404   30.2557 C   0  0  0  0  0  0  0  0  0  0  0  0
   -3.6248    0.7469   30.6019 C   0  0  0  0  0  0  0  0  0  0  0  0
   -4.9743    1.3410   29.1343 C   0  0  0  0  0  0  0  0  0  0  0  0
   -4.0863    1.5497   30.0802 N   0  0  0  0  0  0  0  0  0  0  0  0
   -5.7258    2.4192   28.5988 N   0  0  0  0  0  0  0  0  0  0  0  0
   -5.3055    3.5201   27.9751 C   0  0  0  0  0  0  0  0  0  0  0  0
   -6.5149    3.2403   29.3089 C   0  0  0  0  0  0  0  0  0  0  0  0
   -6.8331    4.3597   28.4471 N   0  0  0  0  0  0  0  0  0  0  0  0
   -5.6331    4.0585   28.3744 C   0  0  0  0  0  0  0  0  0  0  0  0
   -5.2081    4.6581   29.7248 O   0  0  0  0  0  0  0  0  0  0  0  0
  3  8  1  0
  8  9  2  3
  9 10  1  0
 14 16  1  0
 16 17  1  0
 16 18  1  0
  1 19  1  0
 18 19  1  0
 17 20  1  0
 20 21  1  0
  3  2  1  0
  1  2  2  0
  2  7  1  0
  7  6  2  0
  6  5  1  0
  5  4  2  0
  4  1  1  0
 10 11  2  0
 11 12  1  0
 12 13  2  0
 13 15  1  0
 15 14  2  0
 14 10  1  0
M  END
$$$$
