No_5822-complexes_sdf/6BKW-FPZ/2024-09-17-14-21-01/
     RDKit          3D

 15 16  0  0  0  0  0  0  0  0999 V2000
   -7.9040    3.9820   27.1177 C   0  0  0  0  0  0  0  0  0  0  0  0
   -7.8663    4.8694   27.9238 C   0  0  0  0  0  0  0  0  0  0  0  0
   -9.0953    3.1697   27.0532 C   0  0  0  0  0  0  0  0  0  0  0  0
  -10.0353    3.4789   27.6219 C   0  0  0  0  0  0  0  0  0  0  0  0
  -10.1466    4.6997   28.4872 C   0  0  0  0  0  0  0  0  0  0  0  0
   -8.9689    5.3675   28.6165 C   0  0  0  0  0  0  0  0  0  0  0  0
   -9.1609    1.9060   26.2379 C   0  0  0  0  0  0  0  0  0  0  0  0
   -8.5743    0.7551   26.6852 C   0  0  0  0  0  0  0  0  0  0  0  0
   -8.5507   -0.3971   25.9816 C   0  0  0  0  0  0  0  0  0  0  0  0
   -9.6517    1.9775   24.9670 C   0  0  0  0  0  0  0  0  0  0  0  0
   -9.6679    0.8739   24.1297 C   0  0  0  0  0  0  0  0  0  0  0  0
   -9.0979   -0.3002   24.6582 C   0  0  0  0  0  0  0  0  0  0  0  0
  -10.1576    3.2799   24.4149 C   0  0  0  0  0  0  0  0  0  0  0  0
  -10.1045    4.4762   25.0716 C   0  0  0  0  0  0  0  0  0  0  0  0
  -10.5486    5.4987   24.0135 C   0  0  0  0  0  0  0  0  0  0  0  0
  3  7  1  0
 10 13  1  0
 13 14  2  3
 14 15  1  0
  1  2  2  0
  2  6  1  0
  6  5  2  0
  5  4  1  0
  4  3  2  0
  3  1  1  0
  7  8  2  0
  8  9  1  0
  9 12  2  0
 12 11  1  0
 11 10  2  0
 10  7  1  0
M  END
$$$$
