No_5973-complexes_sdf/6BKW-FPZ/2024-09-17-14-21-01/
     RDKit          3D

 33 38  0  0  0  0  0  0  0  0999 V2000
   -7.7129    4.2099   27.0854 C   0  0  0  0  0  0  0  0  0  0  0  0
   -8.2112    3.0637   26.9225 C   0  0  0  0  0  0  0  0  0  0  0  0
   -9.4446    2.8304   26.1868 C   0  0  0  0  0  0  0  0  0  0  0  0
   -6.6388    4.5347   28.1123 C   0  0  0  0  0  0  0  0  0  0  0  0
   -9.9448    3.9173   25.5585 C   0  0  0  0  0  0  0  0  0  0  0  0
   -9.3660    5.1901   25.7094 C   0  0  0  0  0  0  0  0  0  0  0  0
   -8.3659    5.4005   26.5436 C   0  0  0  0  0  0  0  0  0  0  0  0
  -11.1204    3.7819   24.6448 C   0  0  0  0  0  0  0  0  0  0  0  0
  -12.3200    3.5881   25.1544 C   0  0  0  0  0  0  0  0  0  0  0  0
  -10.9246    3.8518   23.2400 C   0  0  0  0  0  0  0  0  0  0  0  0
  -11.8326    3.9116   22.3046 C   0  0  0  0  0  0  0  0  0  0  0  0
  -13.4498    3.6242   24.2077 C   0  0  0  0  0  0  0  0  0  0  0  0
  -13.1643    3.7871   22.8326 C   0  0  0  0  0  0  0  0  0  0  0  0
   -7.6200    1.7979   27.5157 C   0  0  0  0  0  0  0  0  0  0  0  0
   -8.2828    0.7537   27.7378 N   0  0  0  0  0  0  0  0  0  0  0  0
   -9.5511    0.6437   27.7488 C   0  0  0  0  0  0  0  0  0  0  0  0
  -10.2559    1.5738   26.7193 C   0  0  1  0  0  0  0  0  0  0  0  0
   -7.5251   -0.5144   27.9836 C   0  0  0  0  0  0  0  0  0  0  0  0
   -6.1733   -0.4770   27.9149 C   0  0  0  0  0  0  0  0  0  0  0  0
   -5.3404   -1.4620   28.5348 C   0  0  0  0  0  0  0  0  0  0  0  0
   -5.9846   -2.5527   29.0399 C   0  0  0  0  0  0  0  0  0  0  0  0
   -8.1064   -1.5736   28.5865 C   0  0  0  0  0  0  0  0  0  0  0  0
   -7.3448   -2.5693   29.1401 C   0  0  0  0  0  0  0  0  0  0  0  0
  -11.6308    1.9317   27.0954 C   0  0  2  0  0  0  0  0  0  0  0  0
  -12.3276    0.9412   27.8161 C   0  0  0  0  0  0  0  0  0  0  0  0
  -12.2001   -0.2523   27.7335 C   0  0  0  0  0  0  0  0  0  0  0  0
  -13.1225   -1.0288   28.5280 C   0  0  0  0  0  0  0  0  0  0  0  0
  -13.9535   -0.4474   29.4174 C   0  0  0  0  0  0  0  0  0  0  0  0
  -14.1268    0.8902   29.4719 C   0  0  0  0  0  0  0  0  0  0  0  0
  -13.3346    1.6992   28.6845 C   0  0  0  0  0  0  0  0  0  0  0  0
  -12.4818    2.4272   25.8004 C   0  0  2  0  0  0  0  0  0  0  0  0
  -13.3798    1.3802   25.3779 C   0  0  0  0  0  0  0  0  0  0  0  0
  -14.5645    1.5445   25.5285 O   0  0  0  0  0  0  0  0  0  0  0  0
  1  4  1  0
  5  8  1  0
  2 14  1  0
 14 15  1  0
 15 16  1  0
  3 17  1  0
 17 16  1  1
 15 18  1  0
 17 24  1  0
 24 25  1  6
  9 31  1  0
 24 31  1  0
 31 32  1  6
 32 33  2  0
 25 26  2  0
 26 27  1  0
 27 28  2  0
 28 29  1  0
 29 30  2  0
 30 25  1  0
  1  2  2  0
  2  3  1  0
  3  5  2  0
  5  6  1  0
  6  7  2  0
  7  1  1  0
 18 19  2  0
 19 20  1  0
 20 21  2  0
 21 23  1  0
 23 22  2  0
 22 18  1  0
  8  9  2  0
  9 12  1  0
 12 13  2  0
 13 11  1  0
 11 10  2  0
 10  8  1  0
M  END
$$$$
