No_5082-complexes_sdf/6BKW-FPZ/2024-09-17-14-21-01/
     RDKit          3D

 14 14  0  0  0  0  0  0  0  0999 V2000
   -7.2496    3.8871   27.4508 C   0  0  0  0  0  0  0  0  0  0  0  0
   -7.6161    2.7143   27.1523 C   0  0  0  0  0  0  0  0  0  0  0  0
   -8.8302    2.4659   26.5056 C   0  0  0  0  0  0  0  0  0  0  0  0
   -8.1584    5.0090   27.3234 C   0  0  0  0  0  0  0  0  0  0  0  0
   -9.3788    4.7965   26.7695 C   0  0  0  0  0  0  0  0  0  0  0  0
   -9.7028    3.5649   26.3276 C   0  0  0  0  0  0  0  0  0  0  0  0
   -6.7190    1.5585   27.3667 C   0  0  0  0  0  0  0  0  0  0  0  0
   -5.7357    1.8791   28.0891 F   0  0  0  0  0  0  0  0  0  0  0  0
   -7.2933    0.5195   28.0109 F   0  0  0  0  0  0  0  0  0  0  0  0
   -7.6988    6.3693   27.8075 C   0  0  0  0  0  0  0  0  0  0  0  0
   -6.3100    1.0277   26.1728 F   0  0  0  0  0  0  0  0  0  0  0  0
   -8.5050    7.3679   27.4800 F   0  0  0  0  0  0  0  0  0  0  0  0
   -6.4633    6.6188   27.2782 F   0  0  0  0  0  0  0  0  0  0  0  0
   -7.4248    6.2477   29.0731 F   0  0  0  0  0  0  0  0  0  0  0  0
  2  7  1  0
  7  8  1  0
  7  9  1  0
  4 10  1  0
  7 11  1  0
 10 12  1  0
 10 13  1  0
 10 14  1  0
  1  2  2  0
  2  3  1  0
  3  6  2  0
  6  5  1  0
  5  4  2  0
  4  1  1  0
M  END
$$$$
