No_5168-complexes_sdf/6BKW-FPZ/2024-09-17-14-21-01/
     RDKit          3D

 12 13  0  0  0  0  0  0  0  0999 V2000
   -7.2496    3.8871   27.4508 C   0  0  0  0  0  0  0  0  0  0  0  0
   -7.9379    4.9063   27.8518 C   0  0  0  0  0  0  0  0  0  0  0  0
   -8.9501    5.3664   27.1340 C   0  0  0  0  0  0  0  0  0  0  0  0
   -7.8297    2.9727   26.4637 C   0  0  0  0  0  0  0  0  0  0  0  0
   -9.6373    4.6098   26.1956 C   0  0  0  0  0  0  0  0  0  0  0  0
   -9.0235    3.4546   25.8531 C   0  0  0  0  0  0  0  0  0  0  0  0
   -9.6254    2.5622   24.8676 C   0  0  0  0  0  0  0  0  0  0  0  0
   -9.4001    1.3603   24.6739 N   0  0  0  0  0  0  0  0  0  0  0  0
  -10.4821    3.2088   23.8432 C   0  0  0  0  0  0  0  0  0  0  0  0
  -10.9070    2.4264   22.8146 C   0  0  0  0  0  0  0  0  0  0  0  0
   -9.7287    0.6018   23.6571 C   0  0  0  0  0  0  0  0  0  0  0  0
  -10.5597    1.1258   22.6967 C   0  0  0  0  0  0  0  0  0  0  0  0
  6  7  1  0
  7  8  2  0
  8 11  1  0
 11 12  2  0
 12 10  1  0
 10  9  2  0
  9  7  1  0
  1  2  2  0
  2  3  1  0
  3  5  2  0
  5  6  1  0
  6  4  2  0
  4  1  1  0
M  END
$$$$
