No_5972-complexes_sdf/6BKW-FPZ/2024-09-17-14-21-01/
     RDKit          3D

 20 22  0  0  0  0  0  0  0  0999 V2000
   -7.7129    4.2099   27.0854 C   0  0  0  0  0  0  0  0  0  0  0  0
   -8.9133    4.4736   27.0998 C   0  0  0  0  0  0  0  0  0  0  0  0
   -9.4616    5.6470   27.6290 C   0  0  0  0  0  0  0  0  0  0  0  0
   -7.2326    2.9175   26.7557 C   0  0  0  0  0  0  0  0  0  0  0  0
   -8.1546    1.9086   26.5054 C   0  0  0  0  0  0  0  0  0  0  0  0
   -7.6739    0.6359   26.2014 C   0  0  0  0  0  0  0  0  0  0  0  0
   -9.5119    2.1654   26.5706 C   0  0  0  0  0  0  0  0  0  0  0  0
   -9.8863    3.4598   26.8987 C   0  0  0  0  0  0  0  0  0  0  0  0
   -6.9925   -0.0860   26.9271 O   0  0  0  0  0  0  0  0  0  0  0  0
   -8.0417    0.1310   25.0275 O   0  0  0  0  0  0  0  0  0  0  0  0
   -8.6017    6.7093   27.6668 N   0  0  0  0  0  0  0  0  0  0  0  0
   -8.7579    7.7686   26.7163 C   0  0  0  0  0  0  0  0  0  0  0  0
   -7.4177    8.5084   26.7445 C   0  0  0  0  0  0  0  0  0  0  0  0
   -7.2644    6.5244   27.8344 C   0  0  2  0  0  0  0  0  0  0  0  0
   -6.9468    5.6180   28.6399 N   0  0  0  0  0  0  0  0  0  0  0  0
   -6.6783    4.6378   27.9880 C   0  0  0  0  0  0  0  0  0  0  0  0
   -6.7430    7.7254   27.4836 N   0  0  0  0  0  0  0  0  0  0  0  0
  -11.3658    3.6549   26.9308 C   0  0  0  0  0  0  0  0  0  0  0  0
  -12.0093    3.8208   25.8927 C   0  0  0  0  0  0  0  0  0  0  0  0
  -13.4357    4.0300   25.9223 C   0  0  0  0  0  0  0  0  0  0  0  0
  2  3  1  0
  5  6  1  0
  6  9  2  0
  6 10  1  0
  3 11  1  0
 11 12  1  0
 12 13  1  0
 11 14  1  0
 14 15  1  1
  1 16  1  0
 15 16  1  0
 13 17  2  0
 14 17  1  0
  8 18  1  0
 18 19  2  3
 19 20  1  0
  1  2  2  0
  2  8  1  0
  8  7  2  0
  7  5  1  0
  5  4  2  0
  4  1  1  0
M  END
$$$$
