No_5911-complexes_sdf/6BKW-FPZ/2024-09-17-14-21-01/
     RDKit          3D

 40 44  0  0  0  0  0  0  0  0999 V2000
   -7.9040    3.9820   27.1177 C   0  0  0  0  0  0  0  0  0  0  0  0
   -9.0711    4.3164   27.0630 C   0  0  0  0  0  0  0  0  0  0  0  0
   -9.8698    3.9665   25.9495 C   0  0  0  0  0  0  0  0  0  0  0  0
   -7.0332    4.5030   28.2025 C   0  0  0  0  0  0  0  0  0  0  0  0
   -9.4357    2.9501   25.1393 C   0  0  0  0  0  0  0  0  0  0  0  0
   -8.2567    2.3218   25.4797 C   0  0  0  0  0  0  0  0  0  0  0  0
   -7.5105    2.7966   26.5752 C   0  0  0  0  0  0  0  0  0  0  0  0
  -10.2472    2.5204   24.0264 C   0  0  0  0  0  0  0  0  0  0  0  0
  -11.4043    2.6546   23.9915 N   0  0  0  0  0  0  0  0  0  0  0  0
  -12.2004    2.8726   24.8320 C   0  0  0  0  0  0  0  0  0  0  0  0
   -7.3890    5.8369   28.7008 C   0  0  0  0  0  0  0  0  0  0  0  0
   -8.5933    6.3909   28.0623 C   0  0  0  0  0  0  0  0  0  0  0  0
   -9.4777    5.6680   27.2693 C   0  0  0  0  0  0  0  0  0  0  0  0
  -12.0761    2.6576   22.5709 C   0  0  0  0  0  0  0  0  0  0  0  0
   -9.4965    1.9972   23.0423 O   0  0  0  0  0  0  0  0  0  0  0  0
  -13.2626    1.9397   25.0734 C   0  0  2  0  0  0  0  0  0  0  0  0
  -14.3072    2.1275   24.0932 C   0  0  0  0  0  0  0  0  0  0  0  0
  -13.4976    2.0490   22.7596 N   0  0  0  0  0  0  0  0  0  0  0  0
  -14.1795    1.7076   21.5628 C   0  0  0  0  0  0  0  0  0  0  0  0
  -13.6478    0.9218   20.7222 C   0  0  0  0  0  0  0  0  0  0  0  0
  -12.5657    0.1823   20.9933 C   0  0  0  0  0  0  0  0  0  0  0  0
  -11.9050   -0.7415   19.9974 C   0  0  0  0  0  0  0  0  0  0  0  0
  -12.3947   -0.6785   18.7180 C   0  0  0  0  0  0  0  0  0  0  0  0
  -13.4585    0.1067   18.3916 C   0  0  0  0  0  0  0  0  0  0  0  0
  -14.0403    0.8972   19.3135 C   0  0  0  0  0  0  0  0  0  0  0  0
  -15.3366    2.1511   21.4467 O   0  0  0  0  0  0  0  0  0  0  0  0
  -13.4879    1.0867   26.1618 C   0  0  0  0  0  0  0  0  0  0  0  0
  -13.1219    1.4616   27.3888 C   0  0  0  0  0  0  0  0  0  0  0  0
  -12.3403    1.1801   28.1637 C   0  0  0  0  0  0  0  0  0  0  0  0
  -11.9225    1.7668   29.4539 C   0  0  0  0  0  0  0  0  0  0  0  0
  -12.6752    2.9821   29.7693 C   0  0  0  0  0  0  0  0  0  0  0  0
  -13.7597    2.8626   27.7769 C   0  0  0  0  0  0  0  0  0  0  0  0
  -13.5860    3.4014   28.6770 C   0  0  0  0  0  0  0  0  0  0  0  0
  -11.5139   -0.1300   27.9369 C   0  0  0  0  0  0  0  0  0  0  0  0
  -10.1840   -0.0390   27.7128 C   0  0  0  0  0  0  0  0  0  0  0  0
   -9.3971   -1.1767   27.5160 C   0  0  0  0  0  0  0  0  0  0  0  0
   -7.9968   -1.1028   27.2840 C   0  0  0  0  0  0  0  0  0  0  0  0
   -7.3789   -1.9064   26.5251 C   0  0  0  0  0  0  0  0  0  0  0  0
   -8.0292   -3.1465   26.1972 C   0  0  0  0  0  0  0  0  0  0  0  0
   -9.3476   -3.2700   26.4495 C   0  0  0  0  0  0  0  0  0  0  0  0
  5  8  1  0
  8  9  1  0
  9 10  1  0
  9 14  1  0
  8 15  2  0
 16 17  1  0
 14 18  1  0
 17 18  1  0
 18 19  1  0
 19 20  1  0
 19 26  2  0
 16 27  1  1
 27 28  1  0
 29 34  1  0
 34 35  1  0
 35 36  2  3
 36 37  1  0
 37 38  2  3
 38 39  1  0
 39 40  2  0
 10 16  1  0
 28 29  2  0
 29 30  1  0
 30 31  2  0
 31 33  1  0
 33 32  2  0
 32 28  1  0
  2  3  2  0
  3  5  1  0
  5  6  2  0
  6  7  1  0
  7  1  2  0
 20 21  2  0
 21 22  1  0
 22 23  2  0
 23 24  1  0
 24 25  2  0
 25 20  1  0
  1  2  1  0
  2 13  1  0
 13 12  2  0
 12 11  1  0
 11  4  2  0
  4  1  1  0
M  END
$$$$
