No_5986-complexes_sdf/6BKW-FPZ/2024-09-17-14-21-01/
     RDKit          3D

 40 44  0  0  0  0  0  0  0  0999 V2000
   -7.9040    3.9820   27.1177 C   0  0  0  0  0  0  0  0  0  0  0  0
   -8.2057    2.8231   26.8733 C   0  0  0  0  0  0  0  0  0  0  0  0
   -9.2962    2.4021   26.1155 C   0  0  0  0  0  0  0  0  0  0  0  0
   -8.7358    5.0662   26.5917 C   0  0  0  0  0  0  0  0  0  0  0  0
   -9.7618    4.7023   25.7546 C   0  0  0  0  0  0  0  0  0  0  0  0
  -10.0066    3.4105   25.4922 C   0  0  0  0  0  0  0  0  0  0  0  0
   -8.3943    6.4760   26.8801 C   0  0  0  0  0  0  0  0  0  0  0  0
   -8.5947    7.4080   26.1130 N   0  0  0  0  0  0  0  0  0  0  0  0
   -7.4612    6.5884   27.9612 C   0  0  0  0  0  0  0  0  0  0  0  0
   -7.3737    1.6415   27.4736 C   0  0  0  0  0  0  0  0  0  0  0  0
   -7.7349    0.3208   27.3668 C   0  0  0  0  0  0  0  0  0  0  0  0
   -6.8850   -0.6339   27.8207 C   0  0  0  0  0  0  0  0  0  0  0  0
   -7.2871   -1.9865   27.9277 C   0  0  0  0  0  0  0  0  0  0  0  0
   -8.5907   -2.2698   27.4448 C   0  0  0  0  0  0  0  0  0  0  0  0
   -9.4393   -1.3317   27.0144 C   0  0  0  0  0  0  0  0  0  0  0  0
   -9.0729   -0.0054   27.0432 C   0  0  0  0  0  0  0  0  0  0  0  0
   -9.7398    1.0098   26.0857 C   0  0  0  0  0  0  0  0  0  0  0  0
   -5.5187   -0.3108   28.3930 C   0  0  0  0  0  0  0  0  0  0  0  0
   -5.0288   -0.8330   29.5333 C   0  0  0  0  0  0  0  0  0  0  0  0
   -3.8223   -0.4293   30.0359 C   0  0  0  0  0  0  0  0  0  0  0  0
   -3.0415    0.5056   29.2575 C   0  0  0  0  0  0  0  0  0  0  0  0
   -4.6581    0.6398   27.7434 C   0  0  0  0  0  0  0  0  0  0  0  0
   -3.4733    1.0067   28.1597 C   0  0  0  0  0  0  0  0  0  0  0  0
   -3.2403   -0.9725   31.3121 C   0  0  0  0  0  0  0  0  0  0  0  0
   -2.3214   -1.6408   31.4610 N   0  0  0  0  0  0  0  0  0  0  0  0
   -4.1256   -0.8158   32.3763 O   0  0  0  0  0  0  0  0  0  0  0  0
   -1.7457   -2.0722   32.7947 C   0  0  0  0  0  0  0  0  0  0  0  0
  -10.8574    0.5941   25.3363 C   0  0  0  0  0  0  0  0  0  0  0  0
  -12.0741    0.6498   25.7668 C   0  0  0  0  0  0  0  0  0  0  0  0
  -10.5619    0.2006   23.9985 C   0  0  0  0  0  0  0  0  0  0  0  0
  -12.4922    1.0452   27.1007 C   0  0  0  0  0  0  0  0  0  0  0  0
  -13.7942    1.0190   27.5816 C   0  0  0  0  0  0  0  0  0  0  0  0
   -9.3386    0.1216   23.4986 C   0  0  0  0  0  0  0  0  0  0  0  0
   -9.0298   -0.2420   22.1678 C   0  0  0  0  0  0  0  0  0  0  0  0
  -10.1483   -0.4017   21.3257 C   0  0  0  0  0  0  0  0  0  0  0  0
  -11.4403    0.0687   22.8797 C   0  0  0  0  0  0  0  0  0  0  0  0
  -11.3125   -0.2334   21.6918 C   0  0  0  0  0  0  0  0  0  0  0  0
  -14.7648    0.6666   26.6321 C   0  0  0  0  0  0  0  0  0  0  0  0
  -16.0838    0.6284   27.0411 C   0  0  0  0  0  0  0  0  0  0  0  0
  -13.3230    0.0786   25.2723 C   0  0  0  0  0  0  0  0  0  0  0  0
  4  7  1  0
  7  8  2  0
  7  9  1  0
 12 18  1  0
 20 24  1  0
 24 25  1  0
 24 26  2  0
 25 27  1  0
 17 28  1  0
 28 29  2  3
 28 30  1  0
 29 31  1  0
 31 32  2  3
 32 38  1  0
 38 39  1  0
 29 40  1  0
  1  2  2  0
  3  6  2  0
  6  5  1  0
  5  4  2  0
  4  1  1  0
 30 33  2  0
 33 34  1  0
 34 35  2  0
 35 37  1  0
 37 36  2  0
 36 30  1  0
 11 12  1  0
 12 13  2  0
 13 14  1  0
 14 15  2  0
 15 16  1  0
 18 19  2  0
 19 20  1  0
 20 21  2  0
 21 23  1  0
 23 22  2  0
 22 18  1  0
  2  3  1  0
  3 17  1  0
 17 16  2  0
 16 11  1  0
 11 10  2  0
 10  2  1  0
M  END
$$$$
