No_5761-complexes_sdf/6BKW-FPZ/2024-09-17-14-21-01/
     RDKit          3D

 40 44  0  0  0  0  0  0  0  0999 V2000
   -7.9040    3.9820   27.1177 C   0  0  0  0  0  0  0  0  0  0  0  0
   -8.2057    2.8231   26.8733 C   0  0  0  0  0  0  0  0  0  0  0  0
   -8.7463    4.9537   27.6708 C   0  0  0  0  0  0  0  0  0  0  0  0
  -10.0901    4.5164   28.0293 C   0  0  0  0  0  0  0  0  0  0  0  0
   -9.5729    2.3483   27.2382 C   0  0  0  0  0  0  0  0  0  0  0  0
  -10.4170    3.2421   27.8237 C   0  0  0  0  0  0  0  0  0  0  0  0
   -8.3410    6.1726   27.9344 F   0  0  0  0  0  0  0  0  0  0  0  0
   -9.6848    0.8826   26.8702 C   0  0  2  0  0  0  0  0  0  0  0  0
  -10.5659    0.2244   26.9221 N   0  0  0  0  0  0  0  0  0  0  0  0
   -8.4391    0.2167   26.4731 C   0  0  0  0  0  0  0  0  0  0  0  0
  -11.8435    0.6525   27.3320 C   0  0  0  0  0  0  0  0  0  0  0  0
  -12.4802    0.2584   28.1733 C   0  0  0  0  0  0  0  0  0  0  0  0
  -13.7524    0.8129   28.6823 C   0  0  0  0  0  0  0  0  0  0  0  0
  -14.2358    1.8997   28.0337 C   0  0  0  0  0  0  0  0  0  0  0  0
  -13.5154    2.4259   26.9981 C   0  0  0  0  0  0  0  0  0  0  0  0
  -12.2891    1.8902   26.6412 C   0  0  0  0  0  0  0  0  0  0  0  0
   -8.3024   -0.0003   25.1563 C   0  0  0  0  0  0  0  0  0  0  0  0
   -8.8931    0.7435   24.2197 C   0  0  0  0  0  0  0  0  0  0  0  0
   -8.7542    0.5768   22.8474 C   0  0  0  0  0  0  0  0  0  0  0  0
   -7.9730   -0.5384   22.4357 C   0  0  0  0  0  0  0  0  0  0  0  0
   -7.3097   -1.3271   23.3545 C   0  0  0  0  0  0  0  0  0  0  0  0
   -7.4387   -1.0825   24.6914 C   0  0  0  0  0  0  0  0  0  0  0  0
  -10.7384   -1.1820   26.5956 C   0  0  0  0  0  0  0  0  0  0  0  0
  -11.1757   -2.0637   26.2425 C   0  0  0  0  0  0  0  0  0  0  0  0
  -10.9368   -3.0050   25.8816 C   0  0  0  0  0  0  0  0  0  0  0  0
   -9.5869   -3.2657   26.2601 C   0  0  1  0  0  0  0  0  0  0  0  0
   -9.2820   -2.1456   27.0264 C   0  0  0  0  0  0  0  0  0  0  0  0
   -8.7821   -4.3973   26.1438 C   0  0  0  0  0  0  0  0  0  0  0  0
   -7.7311   -4.3942   26.8053 N   0  0  0  0  0  0  0  0  0  0  0  0
   -9.0668   -5.2612   25.3122 O   0  0  0  0  0  0  0  0  0  0  0  0
   -7.2002   -3.5574   27.8478 C   0  0  0  0  0  0  0  0  0  0  0  0
   -5.7994   -3.1391   27.6751 C   0  0  0  0  0  0  0  0  0  0  0  0
   -4.9123   -3.7843   28.2499 C   0  0  0  0  0  0  0  0  0  0  0  0
   -3.6142   -3.3822   28.0702 C   0  0  0  0  0  0  0  0  0  0  0  0
   -3.2350   -2.2629   27.2664 C   0  0  0  0  0  0  0  0  0  0  0  0
   -4.2881   -1.5584   26.6491 C   0  0  0  0  0  0  0  0  0  0  0  0
   -5.6008   -2.0250   26.8527 C   0  0  0  0  0  0  0  0  0  0  0  0
   -9.3566    1.4253   21.8141 C   0  0  0  0  0  0  0  0  0  0  0  0
  -10.2755    0.9832   21.0431 N   0  0  0  0  0  0  0  0  0  0  0  0
  -11.2263    1.7627   20.5216 C   0  0  0  0  0  0  0  0  0  0  0  0
  3  7  1  0
  5  8  1  0
  8  9  1  0
  8 10  1  1
  9 11  1  0
 10 17  1  0
  9 23  1  0
 23 24  1  0
 24 25  2  0
 25 26  1  0
 23 27  1  0
 26 27  1  0
 26 28  1  1
 28 29  1  0
 28 30  2  0
 29 31  1  0
 31 32  1  0
 19 38  1  0
 38 39  1  0
 39 40  1  0
 17 18  2  0
 18 19  1  0
 19 20  2  0
 20 21  1  0
 21 22  2  0
 22 17  1  0
 11 12  2  0
 12 13  1  0
 13 14  2  0
 14 15  1  0
 15 16  2  0
 16 11  1  0
 32 33  2  0
 33 34  1  0
 34 35  2  0
 35 36  1  0
 36 37  2  0
 37 32  1  0
  1  2  2  0
  2  5  1  0
  5  6  2  0
  6  4  1  0
  4  3  2  0
  3  1  1  0
M  END
$$$$
