No_5902-complexes_sdf/6BKW-FPZ/2024-09-17-14-21-01/
     RDKit          3D

 24 27  0  0  0  0  0  0  0  0999 V2000
   -7.9040    3.9820   27.1177 C   0  0  0  0  0  0  0  0  0  0  0  0
   -9.0711    4.3164   27.0630 C   0  0  0  0  0  0  0  0  0  0  0  0
   -9.9692    3.7224   26.1073 C   0  0  0  0  0  0  0  0  0  0  0  0
   -6.9787    4.6761   28.1003 C   0  0  0  0  0  0  0  0  0  0  0  0
  -11.1978    4.2793   25.7845 C   0  0  0  0  0  0  0  0  0  0  0  0
  -11.9722    3.7671   24.7671 C   0  0  0  0  0  0  0  0  0  0  0  0
  -11.4321    2.7931   23.9433 C   0  0  0  0  0  0  0  0  0  0  0  0
  -10.2070    2.2970   24.1835 C   0  0  0  0  0  0  0  0  0  0  0  0
   -9.3944    2.8078   25.1975 C   0  0  0  0  0  0  0  0  0  0  0  0
   -7.5140    5.6743   28.8888 C   0  0  0  0  0  0  0  0  0  0  0  0
   -9.4880    5.3919   27.8970 C   0  0  0  0  0  0  0  0  0  0  0  0
   -8.7303    6.0841   28.7261 C   0  0  0  0  0  0  0  0  0  0  0  0
  -12.2417    2.2051   22.8408 C   0  0  0  0  0  0  0  0  0  0  0  0
  -13.1744    2.0041   22.5217 C   0  0  0  0  0  0  0  0  0  0  0  0
  -13.6645    1.4453   21.2744 C   0  0  0  0  0  0  0  0  0  0  0  0
  -12.6490    1.1516   20.3739 C   0  0  0  0  0  0  0  0  0  0  0  0
  -11.1946    1.8568   21.6445 C   0  0  0  0  0  0  0  0  0  0  0  0
  -11.4579    1.3310   20.5391 C   0  0  0  0  0  0  0  0  0  0  0  0
   -5.3775    4.0438   28.2556 Cl  0  0  0  0  0  0  0  0  0  0  0  0
  -13.1666    0.5108   19.0193 C   0  0  0  0  0  0  0  0  0  0  0  0
  -12.6892    0.8015   17.9721 C   0  0  0  0  0  0  0  0  0  0  0  0
  -11.6837    1.8903   17.9201 C   0  0  0  0  0  0  0  0  0  0  0  0
  -10.7058    2.3240   18.7665 C   0  0  0  0  0  0  0  0  0  0  0  0
  -10.6547    2.2192   20.0466 C   0  0  0  0  0  0  0  0  0  0  0  0
  2  3  1  0
  7 13  1  0
  4 19  1  0
 16 20  1  0
 20 21  2  0
 21 22  1  0
 22 23  2  0
 18 24  1  0
 23 24  1  0
  3  5  2  0
  5  6  1  0
  6  7  2  0
  7  8  1  0
  8  9  2  0
  9  3  1  0
  1  2  2  0
  2 11  1  0
 11 12  2  0
 12 10  1  0
 10  4  2  0
  4  1  1  0
 13 14  2  0
 14 15  1  0
 15 16  2  0
 16 18  1  0
 18 17  2  0
 17 13  1  0
M  END
$$$$
