No_5416-complexes_sdf/6BKW-FPZ/2024-09-17-14-21-01/
     RDKit          3D

 22 24  0  0  0  0  0  0  0  0999 V2000
   -7.9040    3.9820   27.1177 C   0  0  0  0  0  0  0  0  0  0  0  0
   -9.0711    4.3164   27.0630 C   0  0  0  0  0  0  0  0  0  0  0  0
   -9.9692    3.7224   26.1073 C   0  0  0  0  0  0  0  0  0  0  0  0
   -6.9787    4.6761   28.1003 C   0  0  0  0  0  0  0  0  0  0  0  0
   -9.4538    2.6801   25.3673 C   0  0  0  0  0  0  0  0  0  0  0  0
   -8.1927    2.1957   25.6621 C   0  0  0  0  0  0  0  0  0  0  0  0
   -7.4333    2.8255   26.6299 C   0  0  0  0  0  0  0  0  0  0  0  0
  -10.3066    1.9975   24.3777 C   0  0  0  0  0  0  0  0  0  0  0  0
  -10.6559    2.6408   23.2832 C   0  0  0  0  0  0  0  0  0  0  0  0
  -11.3742    2.0135   22.1919 C   0  0  0  0  0  0  0  0  0  0  0  0
  -11.5774    0.6233   22.3134 C   0  0  0  0  0  0  0  0  0  0  0  0
  -10.6391    0.6462   24.4296 C   0  0  0  0  0  0  0  0  0  0  0  0
  -11.2037   -0.0075   23.4198 C   0  0  0  0  0  0  0  0  0  0  0  0
   -7.4024    5.7648   28.6430 O   0  0  0  0  0  0  0  0  0  0  0  0
   -5.7818    4.2335   28.2517 O   0  0  0  0  0  0  0  0  0  0  0  0
  -10.4080    4.1402   23.0270 C   0  0  0  0  0  0  0  0  0  0  0  0
  -10.6556    4.6403   21.8437 N   0  0  0  0  0  0  0  0  0  0  0  0
  -10.1367    4.8888   23.9935 O   0  0  0  0  0  0  0  0  0  0  0  0
  -11.5408   -1.4762   23.5364 C   0  0  0  0  0  0  0  0  0  0  0  0
  -11.8905   -2.1342   22.6323 C   0  0  0  0  0  0  0  0  0  0  0  0
  -12.2196   -1.4442   21.3413 C   0  0  0  0  0  0  0  0  0  0  0  0
  -12.0731   -0.0900   21.1991 C   0  0  0  0  0  0  0  0  0  0  0  0
  1  4  1  0
  5  8  1  0
  4 14  1  0
  4 15  2  0
  9 16  1  0
 16 17  1  0
 16 18  2  0
 13 19  1  0
 19 20  2  0
 20 21  1  0
 21 22  2  0
 22 11  1  0
  8  9  2  0
  9 10  1  0
 10 11  2  0
 11 13  1  0
 13 12  2  0
 12  8  1  0
  1  2  2  0
  2  3  1  0
  3  5  2  0
  5  6  1  0
  6  7  2  0
  7  1  1  0
M  END
$$$$
