No_5756-complexes_sdf/6BKW-FPZ/2024-09-17-14-21-01/
     RDKit          3D

 40 44  0  0  0  0  0  0  0  0999 V2000
   -7.7129    4.2099   27.0854 C   0  0  0  0  0  0  0  0  0  0  0  0
   -8.9133    4.4736   27.0998 C   0  0  0  0  0  0  0  0  0  0  0  0
   -9.7785    3.9136   27.0578 C   0  0  0  0  0  0  0  0  0  0  0  0
   -6.5492    5.1157   27.5054 C   0  0  0  0  0  0  0  0  0  0  0  0
   -9.6382    2.4133   26.9096 C   0  0  0  0  0  0  0  0  0  0  0  0
   -8.3392    1.9307   27.0336 C   0  0  0  0  0  0  0  0  0  0  0  0
   -7.3440    2.8576   27.2820 C   0  0  0  0  0  0  0  0  0  0  0  0
   -8.0842    0.4779   27.1292 C   0  0  0  0  0  0  0  0  0  0  0  0
   -6.7973    0.0643   27.1682 C   0  0  0  0  0  0  0  0  0  0  0  0
   -5.6989    0.9733   27.2436 C   0  0  0  0  0  0  0  0  0  0  0  0
   -5.9518    2.3480   27.3380 C   0  0  0  0  0  0  0  0  0  0  0  0
   -4.3521    0.5330   27.5258 C   0  0  0  0  0  0  0  0  0  0  0  0
   -3.7336    0.4528   26.5099 F   0  0  0  0  0  0  0  0  0  0  0  0
   -4.3516   -0.6889   28.1785 F   0  0  0  0  0  0  0  0  0  0  0  0
   -3.7253    1.2108   28.5026 F   0  0  0  0  0  0  0  0  0  0  0  0
  -11.3157    4.2488   26.9691 C   0  0  0  0  0  0  0  0  0  0  0  0
  -12.0136    4.1404   25.8372 C   0  0  0  0  0  0  0  0  0  0  0  0
  -13.4184    4.4222   25.8578 C   0  0  0  0  0  0  0  0  0  0  0  0
  -14.0506    4.9486   27.0540 C   0  0  0  0  0  0  0  0  0  0  0  0
  -13.2452    5.0413   28.2123 C   0  0  0  0  0  0  0  0  0  0  0  0
  -11.9300    4.6747   28.2670 C   0  0  0  0  0  0  0  0  0  0  0  0
  -15.3002    5.2897   27.0299 F   0  0  0  0  0  0  0  0  0  0  0  0
  -10.6466    1.5832   26.8434 O   0  0  0  0  0  0  0  0  0  0  0  0
  -11.1471    0.9553   27.8727 C   0  0  0  0  0  0  0  0  0  0  0  0
  -12.2587    1.0161   28.2423 C   0  0  0  0  0  0  0  0  0  0  0  0
  -12.8968    0.1936   29.2853 C   0  0  0  0  0  0  0  0  0  0  0  0
  -12.2544   -1.0253   29.5365 C   0  0  0  0  0  0  0  0  0  0  0  0
  -10.9624   -1.2660   29.0198 C   0  0  0  0  0  0  0  0  0  0  0  0
  -10.4626   -0.3766   28.1301 C   0  0  0  0  0  0  0  0  0  0  0  0
  -10.2808   -2.4996   29.4479 C   0  0  0  0  0  0  0  0  0  0  0  0
   -9.6216   -2.5201   30.5688 C   0  0  0  0  0  0  0  0  0  0  0  0
   -8.8177   -3.6408   31.0292 C   0  0  0  0  0  0  0  0  0  0  0  0
   -8.6837   -4.6776   30.1015 C   0  0  0  0  0  0  0  0  0  0  0  0
  -10.0495   -3.5399   28.5581 C   0  0  0  0  0  0  0  0  0  0  0  0
   -9.3092   -4.6463   28.8932 C   0  0  0  0  0  0  0  0  0  0  0  0
   -9.1515   -5.7463   27.9672 C   0  0  0  0  0  0  0  0  0  0  0  0
   -8.7662   -6.6866   27.9619 O   0  0  0  0  0  0  0  0  0  0  0  0
   -9.4048   -5.2542   26.6742 O   0  0  0  0  0  0  0  0  0  0  0  0
   -8.2171   -3.5952   32.3838 C   0  0  0  0  0  0  0  0  0  0  0  0
   -7.7864   -4.4033   32.8457 C   0  0  0  0  0  0  0  0  0  0  0  0
  1  4  1  0
 10 12  1  0
 12 13  1  0
 12 14  1  0
 12 15  1  0
  3 16  1  0
 19 22  1  0
  5 23  1  0
 23 24  1  0
 28 30  1  0
 35 36  1  0
 36 37  2  0
 36 38  1  0
 32 39  1  0
 39 40  2  0
 24 25  2  0
 25 26  1  0
 26 27  2  0
 27 28  1  0
 28 29  2  0
 29 24  1  0
 30 31  2  0
 31 32  1  0
 32 33  2  0
 33 35  1  0
 35 34  2  0
 34 30  1  0
  1  2  2  0
  2  3  1  0
  3  5  2  0
  5  6  1  0
  7  1  1  0
  6  7  2  0
  7 11  1  0
 11 10  2  0
 10  9  1  0
  9  8  2  0
  8  6  1  0
 16 17  2  0
 17 18  1  0
 18 19  2  0
 19 20  1  0
 20 21  2  0
 21 16  1  0
M  END
$$$$
