No_5553-complexes_sdf/6BKW-FPZ/2024-09-17-14-21-01/
     RDKit          3D

 14 15  0  0  0  0  0  0  0  0999 V2000
   -7.2496    3.8871   27.4508 C   0  0  0  0  0  0  0  0  0  0  0  0
   -7.9379    4.9063   27.8518 C   0  0  0  0  0  0  0  0  0  0  0  0
   -9.3460    4.8223   27.8695 C   0  0  0  0  0  0  0  0  0  0  0  0
   -7.8628    2.6163   27.1065 C   0  0  0  0  0  0  0  0  0  0  0  0
   -9.2787    2.5744   27.1970 C   0  0  0  0  0  0  0  0  0  0  0  0
  -10.0108    3.6770   27.6340 C   0  0  0  0  0  0  0  0  0  0  0  0
  -11.4487    3.3729   27.7139 C   0  0  0  0  0  0  0  0  0  0  0  0
  -11.9343    2.4096   28.2605 C   0  0  0  0  0  0  0  0  0  0  0  0
  -11.0139    1.5489   28.9104 C   0  0  0  0  0  0  0  0  0  0  0  0
   -9.7612    1.3115   28.0633 C   0  0  0  0  0  0  0  0  0  0  0  0
   -7.3430    6.1244   27.9638 O   0  0  0  0  0  0  0  0  0  0  0  0
  -13.3359    2.2488   28.7144 C   0  0  0  0  0  0  0  0  0  0  0  0
  -14.1497    2.7651   28.2499 O   0  0  0  0  0  0  0  0  0  0  0  0
  -13.5468    1.6969   29.9423 O   0  0  0  0  0  0  0  0  0  0  0  0
  2 11  1  0
  8 12  1  0
 12 13  2  0
 12 14  1  0
  1  2  2  0
  2  3  1  0
  3  6  2  0
  5  4  2  0
  4  1  1  0
  5  6  1  0
  6  7  1  0
  7  8  2  0
  8  9  1  0
  9 10  2  0
 10  5  1  0
M  END
$$$$
