No_5335-complexes_sdf/6BKW-FPZ/2024-09-17-14-21-01/
     RDKit          3D

 23 25  0  0  0  0  0  0  0  0999 V2000
   -7.7129    4.2099   27.0854 C   0  0  0  0  0  0  0  0  0  0  0  0
   -7.7814    5.1722   27.8972 C   0  0  0  0  0  0  0  0  0  0  0  0
   -8.8998    3.8713   26.3707 C   0  0  0  0  0  0  0  0  0  0  0  0
   -9.9938    4.6774   26.5446 C   0  0  0  0  0  0  0  0  0  0  0  0
   -8.7789    6.1536   27.9256 C   0  0  0  0  0  0  0  0  0  0  0  0
   -9.9428    5.8398   27.2296 C   0  0  0  0  0  0  0  0  0  0  0  0
   -8.9244    2.3076   25.3448 Br  0  0  0  0  0  0  0  0  0  0  0  0
  -11.1840    4.3575   25.7135 C   0  0  0  0  0  0  0  0  0  0  0  0
  -12.3589    3.9359   26.2859 C   0  0  0  0  0  0  0  0  0  0  0  0
  -13.5143    3.7036   25.5537 C   0  0  0  0  0  0  0  0  0  0  0  0
  -13.4242    3.9027   24.1459 C   0  0  0  0  0  0  0  0  0  0  0  0
  -11.1829    4.5328   24.2848 C   0  0  0  0  0  0  0  0  0  0  0  0
  -12.2078    4.3451   23.5447 C   0  0  0  0  0  0  0  0  0  0  0  0
  -12.4226    3.8074   27.6344 O   0  0  0  0  0  0  0  0  0  0  0  0
  -11.9710    2.7135   28.2631 C   0  0  1  0  0  0  0  0  0  0  0  0
  -12.2896    2.5720   29.5903 C   0  0  0  0  0  0  0  0  0  0  0  0
  -12.4013    1.3650   27.6218 C   0  0  0  0  0  0  0  0  0  0  0  0
  -11.5312    0.3386   27.9698 C   0  0  0  0  0  0  0  0  0  0  0  0
  -10.2396    0.2927   27.3761 C   0  0  0  0  0  0  0  0  0  0  0  0
   -9.2880   -0.6837   27.7850 C   0  0  0  0  0  0  0  0  0  0  0  0
   -9.7242   -1.7573   28.6043 C   0  0  0  0  0  0  0  0  0  0  0  0
  -11.0528   -1.7362   29.0856 C   0  0  0  0  0  0  0  0  0  0  0  0
  -11.9300   -0.7098   28.7576 C   0  0  0  0  0  0  0  0  0  0  0  0
  3  7  1  0
  4  8  1  0
  9 14  1  0
 14 15  1  0
 15 16  1  1
 15 17  1  0
 17 18  1  0
 18 19  2  0
 19 20  1  0
 20 21  2  0
 21 22  1  0
 22 23  2  0
 23 18  1  0
  1  2  2  0
  2  5  1  0
  5  6  2  0
  6  4  1  0
  4  3  2  0
  3  1  1  0
  8  9  1  0
  9 10  2  0
 10 11  1  0
 11 13  2  0
 13 12  1  0
 12  8  2  0
M  END
$$$$
