No_5656-complexes_sdf/6BKW-FPZ/2024-09-17-14-21-01/
     RDKit          3D

 13 14  0  0  0  0  0  0  0  0999 V2000
   -7.7129    4.2099   27.0854 C   0  0  0  0  0  0  0  0  0  0  0  0
   -7.7814    5.1722   27.8972 C   0  0  0  0  0  0  0  0  0  0  0  0
   -8.8776    3.8408   26.3416 C   0  0  0  0  0  0  0  0  0  0  0  0
   -8.9136    2.6330   25.5655 C   0  0  0  0  0  0  0  0  0  0  0  0
   -8.8361    6.1389   27.9032 C   0  0  0  0  0  0  0  0  0  0  0  0
  -10.0140    4.6007   26.4589 C   0  0  0  0  0  0  0  0  0  0  0  0
   -9.9695    5.8024   27.1801 C   0  0  0  0  0  0  0  0  0  0  0  0
   -8.2958    1.4920   26.1485 C   0  0  0  0  0  0  0  0  0  0  0  0
   -8.3016    0.2692   25.5053 C   0  0  0  0  0  0  0  0  0  0  0  0
   -7.6995   -0.8081   26.1145 C   0  0  0  0  0  0  0  0  0  0  0  0
   -7.0603   -0.7008   27.3625 C   0  0  0  0  0  0  0  0  0  0  0  0
   -6.9291    0.5743   27.9253 C   0  0  0  0  0  0  0  0  0  0  0  0
   -7.4636    1.6616   27.4599 C   0  0  0  0  0  0  0  0  0  0  0  0
  3  4  1  0
  4  8  1  0
  8  9  2  0
  9 10  1  0
 10 11  2  0
 11 12  1  0
 12 13  2  0
 13  8  1  0
  1  2  2  0
  2  5  1  0
  5  7  2  0
  7  6  1  0
  6  3  2  0
  3  1  1  0
M  END
$$$$
