No_5699-complexes_sdf/6BKW-FPZ/2024-09-17-14-21-01/
     RDKit          3D

 22 24  0  0  0  0  0  0  0  0999 V2000
   -7.7129    4.2099   27.0854 C   0  0  0  0  0  0  0  0  0  0  0  0
   -7.7814    5.1722   27.8972 C   0  0  0  0  0  0  0  0  0  0  0  0
   -8.8998    3.8713   26.3707 C   0  0  0  0  0  0  0  0  0  0  0  0
   -9.7416    3.2213   26.9591 C   0  0  0  0  0  0  0  0  0  0  0  0
  -10.0326    3.7911   28.3648 C   0  0  0  0  0  0  0  0  0  0  0  0
   -9.0681    5.0614   28.7250 C   0  0  0  0  0  0  0  0  0  0  0  0
  -10.6580    2.1900   26.6562 C   0  0  0  0  0  0  0  0  0  0  0  0
  -10.9381    1.2366   27.5173 C   0  0  0  0  0  0  0  0  0  0  0  0
  -10.8139    1.0591   28.5318 C   0  0  0  0  0  0  0  0  0  0  0  0
  -11.3834   -0.1285   29.1628 C   0  0  0  0  0  0  0  0  0  0  0  0
  -11.7034    0.0276   26.9391 C   0  0  0  0  0  0  0  0  0  0  0  0
  -12.0492   -0.1648   25.6077 C   0  0  1  0  0  0  0  0  0  0  0  0
  -11.8740   -0.7342   28.0194 C   0  0  0  0  0  0  0  0  0  0  0  0
  -11.2203   -0.4466   24.7172 C   0  0  0  0  0  0  0  0  0  0  0  0
  -10.1663   -1.1510   24.7506 C   0  0  0  0  0  0  0  0  0  0  0  0
   -9.1254   -0.9732   24.5776 C   0  0  0  0  0  0  0  0  0  0  0  0
   -8.7694    0.1582   23.5914 C   0  0  0  0  0  0  0  0  0  0  0  0
   -9.8234    0.9109   23.0829 C   0  0  0  0  0  0  0  0  0  0  0  0
  -11.0082    0.7212   23.7311 C   0  0  0  0  0  0  0  0  0  0  0  0
  -13.4780   -0.1207   25.3744 C   0  0  0  0  0  0  0  0  0  0  0  0
  -13.9034    0.9139   24.7532 C   0  0  0  0  0  0  0  0  0  0  0  0
  -15.3033    1.0364   24.4169 C   0  0  0  0  0  0  0  0  0  0  0  0
  4  7  1  0
  7  8  1  0
  8  9  2  0
  9 10  1  0
  8 11  1  0
 12 11  1  1
 10 13  2  0
 11 13  1  0
 12 14  1  0
 12 20  1  0
 20 21  2  3
 21 22  1  0
 14 15  2  0
 15 16  1  0
 16 17  2  0
 17 18  1  0
 18 19  2  0
 19 14  1  0
  1  2  2  0
  2  6  1  0
  6  5  2  0
  5  4  1  0
  4  3  2  0
  3  1  1  0
M  END
$$$$
