No_5191-complexes_sdf/6BKW-FPZ/2024-09-17-14-21-01/
     RDKit          3D

 18 20  0  0  0  0  0  0  0  0999 V2000
   -7.2496    3.8871   27.4508 C   0  0  0  0  0  0  0  0  0  0  0  0
   -7.6161    2.7143   27.1523 C   0  0  0  0  0  0  0  0  0  0  0  0
   -7.1618    1.8631   27.5232 C   0  0  0  0  0  0  0  0  0  0  0  0
   -8.0036    5.1085   27.2100 C   0  0  1  0  0  0  0  0  0  0  0  0
   -7.6739    6.3858   27.8565 C   0  0  0  0  0  0  0  0  0  0  0  0
   -8.9387    5.1580   26.1129 C   0  0  2  0  0  0  0  0  0  0  0  0
   -7.5074    0.4659   27.2194 C   0  0  0  0  0  0  0  0  0  0  0  0
   -8.8125    0.3062   26.7434 C   0  0  0  0  0  0  0  0  0  0  0  0
   -9.5474    1.4201   26.3911 C   0  0  0  0  0  0  0  0  0  0  0  0
   -9.0041    2.6795   26.6239 C   0  0  0  0  0  0  0  0  0  0  0  0
   -9.6388    6.2620   25.7737 C   0  0  0  0  0  0  0  0  0  0  0  0
   -9.5077    3.8092   25.7955 C   0  0  0  0  0  0  0  0  0  0  0  0
  -10.4283    3.6596   24.7985 C   0  0  0  0  0  0  0  0  0  0  0  0
  -11.6942    3.4286   25.0895 C   0  0  0  0  0  0  0  0  0  0  0  0
   -9.9916    3.6388   23.4466 C   0  0  0  0  0  0  0  0  0  0  0  0
  -12.7099    3.3981   24.1319 C   0  0  0  0  0  0  0  0  0  0  0  0
  -10.8665    3.6150   22.3955 C   0  0  0  0  0  0  0  0  0  0  0  0
  -12.2662    3.4956   22.7696 C   0  0  0  0  0  0  0  0  0  0  0  0
  1  2  1  0
  1  4  1  0
  4  5  1  6
  4  6  1  0
  6 11  1  1
  6 12  1  0
 10 12  1  0
 12 13  1  0
 13 14  2  0
 14 16  1  0
 16 18  2  0
 18 17  1  0
 17 15  2  0
 15 13  1  0
  2  3  2  0
  3  7  1  0
  7  8  2  0
  8  9  1  0
  9 10  2  0
 10  2  1  0
M  END
$$$$
