No_5454-complexes_sdf/6BKW-FPZ/2024-09-17-14-21-01/
     RDKit          3D

 16 16  0  0  0  0  0  0  0  0999 V2000
   -7.9040    3.9820   27.1177 C   0  0  0  0  0  0  0  0  0  0  0  0
   -9.0711    4.3164   27.0630 C   0  0  0  0  0  0  0  0  0  0  0  0
   -9.5294    5.4517   27.7215 C   0  0  0  0  0  0  0  0  0  0  0  0
  -10.0314    3.1095   27.2528 C   0  0  0  0  0  0  0  0  0  0  0  0
   -9.5931    2.0019   26.8804 C   0  0  0  0  0  0  0  0  0  0  0  0
   -7.2982    2.6870   26.8974 C   0  0  0  0  0  0  0  0  0  0  0  0
   -8.1708    1.6557   26.8865 C   0  0  0  0  0  0  0  0  0  0  0  0
   -7.6941    0.2968   26.7198 C   0  0  0  0  0  0  0  0  0  0  0  0
   -8.1862   -0.6084   27.0933 N   0  0  0  0  0  0  0  0  0  0  0  0
   -7.7459   -1.8001   27.3923 C   0  0  0  0  0  0  0  0  0  0  0  0
   -8.4801   -2.7743   28.1430 C   0  0  0  0  0  0  0  0  0  0  0  0
   -6.7437    0.2936   25.8614 O   0  0  0  0  0  0  0  0  0  0  0  0
   -8.0012   -3.6249   28.8661 C   0  0  0  0  0  0  0  0  0  0  0  0
   -8.8068   -4.3806   29.8427 C   0  0  0  0  0  0  0  0  0  0  0  0
  -10.1633   -4.1312   29.8737 C   0  0  0  0  0  0  0  0  0  0  0  0
  -10.7301   -3.1318   29.1084 C   0  0  0  0  0  0  0  0  0  0  0  0
  2  3  1  0
  7  8  1  0
  8  9  1  0
  9 10  1  0
 10 11  2  3
  8 12  2  0
 11 13  1  0
 13 14  1  0
 14 15  2  3
 15 16  1  0
  1  2  2  0
  2  4  1  0
  4  5  2  0
  5  7  1  0
  7  6  2  0
  6  1  1  0
M  END
$$$$
