No_5320-complexes_sdf/6BKW-FPZ/2024-09-17-14-21-01/
     RDKit          3D

 26 28  0  0  0  0  0  0  0  0999 V2000
   -7.7129    4.2099   27.0854 C   0  0  0  0  0  0  0  0  0  0  0  0
   -8.9133    4.4736   27.0998 C   0  0  0  0  0  0  0  0  0  0  0  0
   -9.7937    3.7367   26.2091 C   0  0  0  0  0  0  0  0  0  0  0  0
   -7.2495    2.8647   26.8496 C   0  0  0  0  0  0  0  0  0  0  0  0
   -8.1891    1.9790   26.3454 C   0  0  0  0  0  0  0  0  0  0  0  0
   -9.4252    2.4603   26.0121 C   0  0  0  0  0  0  0  0  0  0  0  0
   -9.3121    5.9663   27.2474 C   0  0  0  0  0  0  0  0  0  0  0  0
   -7.7466    0.5946   26.1401 C   0  0  0  0  0  0  0  0  0  0  0  0
   -7.9509    0.1236   25.0622 O   0  0  0  0  0  0  0  0  0  0  0  0
   -7.0819   -0.0632   27.1720 N   0  0  0  0  0  0  0  0  0  0  0  0
   -6.6698   -1.4004   27.0275 C   0  0  0  0  0  0  0  0  0  0  0  0
   -8.1866    6.9112   27.3482 C   0  0  0  0  0  0  0  0  0  0  0  0
   -7.9621    7.7040   26.3871 C   0  0  0  0  0  0  0  0  0  0  0  0
   -7.2223   -2.2361   27.0602 C   0  0  0  0  0  0  0  0  0  0  0  0
   -6.7495   -3.6261   26.9020 C   0  0  0  0  0  0  0  0  0  0  0  0
   -5.1959   -1.3833   26.8804 C   0  0  0  0  0  0  0  0  0  0  0  0
   -4.5793   -2.6328   26.7061 C   0  0  0  0  0  0  0  0  0  0  0  0
   -5.3699   -3.7503   26.7507 C   0  0  0  0  0  0  0  0  0  0  0  0
   -4.7563   -5.0900   26.6142 C   0  0  0  0  0  0  0  0  0  0  0  0
   -5.1930   -5.9946   27.0592 O   0  0  0  0  0  0  0  0  0  0  0  0
   -3.7982   -5.1482   25.5196 N   0  0  0  0  0  0  0  0  0  0  0  0
   -3.1814   -6.3976   25.2423 C   0  0  0  0  0  0  0  0  0  0  0  0
   -2.7220   -6.4390   24.0012 C   0  0  0  0  0  0  0  0  0  0  0  0
   -2.5054   -5.2570   23.1554 C   0  0  0  0  0  0  0  0  0  0  0  0
   -3.1318   -4.0563   23.6099 C   0  0  0  0  0  0  0  0  0  0  0  0
   -3.7619   -4.0085   24.6525 C   0  0  0  0  0  0  0  0  0  0  0  0
  2  7  1  0
  5  8  1  0
  8  9  2  0
  8 10  1  0
 10 11  1  0
  7 12  2  3
 12 13  1  0
 18 19  1  0
 19 20  2  0
 19 21  1  0
 21 22  1  0
 23 24  1  0
 24 25  1  0
 21 26  1  0
 25 26  1  0
 22 23  1  0
  1  2  2  0
  2  3  1  0
  3  6  2  0
  6  5  1  0
  5  4  2  0
  4  1  1  0
 11 14  2  0
 14 15  1  0
 15 18  2  0
 18 17  1  0
 17 16  2  0
 16 11  1  0
M  END
$$$$
