No_5646-complexes_sdf/6BKW-FPZ/2024-09-17-14-21-01/
     RDKit          3D

 15 16  0  0  0  0  0  0  0  0999 V2000
   -7.9040    3.9820   27.1177 C   0  0  0  0  0  0  0  0  0  0  0  0
   -7.8663    4.8694   27.9238 C   0  0  0  0  0  0  0  0  0  0  0  0
   -9.0491    3.8523   26.2542 C   0  0  0  0  0  0  0  0  0  0  0  0
   -8.7661    5.9491   27.9690 C   0  0  0  0  0  0  0  0  0  0  0  0
   -9.9295    4.8502   26.2323 C   0  0  0  0  0  0  0  0  0  0  0  0
   -9.8077    5.9288   27.0933 C   0  0  0  0  0  0  0  0  0  0  0  0
   -6.8002    2.6256   27.2024 Cl  0  0  0  0  0  0  0  0  0  0  0  0
   -8.9698    2.4457   25.1479 Cl  0  0  0  0  0  0  0  0  0  0  0  0
  -10.8921    4.8132   25.2914 O   0  0  0  0  0  0  0  0  0  0  0  0
  -10.5998    4.6981   24.0626 C   0  0  0  0  0  0  0  0  0  0  0  0
  -11.3343    3.7701   23.1612 C   0  0  0  0  0  0  0  0  0  0  0  0
  -10.9660    3.6297   21.8789 C   0  0  0  0  0  0  0  0  0  0  0  0
  -11.3816    2.6025   21.1273 C   0  0  0  0  0  0  0  0  0  0  0  0
  -11.9319    1.7949   21.6256 C   0  0  0  0  0  0  0  0  0  0  0  0
  -11.9819    2.5929   23.4107 C   0  0  0  0  0  0  0  0  0  0  0  0
  1  7  1  0
  3  8  1  0
  5  9  1  0
  9 10  1  0
 10 11  1  0
 11 12  2  0
 12 13  1  0
 13 14  2  0
 11 15  1  0
 14 15  1  0
  1  2  2  0
  2  4  1  0
  4  6  2  0
  6  5  1  0
  5  3  2  0
  3  1  1  0
M  END
$$$$
