No_5431-complexes_sdf/6BKW-FPZ/2024-09-17-14-21-01/
     RDKit          3D

 28 31  0  0  0  0  0  0  0  0999 V2000
   -7.7129    4.2099   27.0854 C   0  0  0  0  0  0  0  0  0  0  0  0
   -7.7814    5.1722   27.8972 C   0  0  0  0  0  0  0  0  0  0  0  0
   -8.7889    3.2468   27.2220 C   0  0  0  0  0  0  0  0  0  0  0  0
   -9.8927    3.4443   27.8449 C   0  0  0  0  0  0  0  0  0  0  0  0
   -9.0268    5.6720   28.5154 C   0  0  0  0  0  0  0  0  0  0  0  0
  -10.0572    4.7324   28.5632 C   0  0  0  0  0  0  0  0  0  0  0  0
   -8.6015    1.8826   26.5580 C   0  0  0  0  0  0  0  0  0  0  0  0
   -7.7308    0.9359   27.0907 C   0  0  0  0  0  0  0  0  0  0  0  0
   -7.5618   -0.3028   26.5743 C   0  0  0  0  0  0  0  0  0  0  0  0
   -9.2890    1.6136   25.4137 C   0  0  0  0  0  0  0  0  0  0  0  0
   -9.1589    0.3923   24.7618 C   0  0  0  0  0  0  0  0  0  0  0  0
   -6.7176   -1.2581   27.1638 C   0  0  0  0  0  0  0  0  0  0  0  0
   -8.2928   -0.5350   25.3722 C   0  0  0  0  0  0  0  0  0  0  0  0
   -6.6792   -2.3470   26.9920 C   0  0  0  0  0  0  0  0  0  0  0  0
   -5.7725   -3.3270   27.6383 C   0  0  0  0  0  0  0  0  0  0  0  0
   -4.9153   -2.8652   28.5935 C   0  0  0  0  0  0  0  0  0  0  0  0
   -4.9337   -1.4994   28.9303 C   0  0  0  0  0  0  0  0  0  0  0  0
   -5.7674   -0.6555   28.2817 C   0  0  0  0  0  0  0  0  0  0  0  0
   -4.0239   -0.8996   29.9678 C   0  0  0  0  0  0  0  0  0  0  0  0
   -3.4951    0.3430   29.7299 C   0  0  0  0  0  0  0  0  0  0  0  0
   -3.6894   -1.6303   31.1293 C   0  0  2  0  0  0  0  0  0  0  0  0
   -4.2585   -1.4419   32.1482 C   0  0  0  0  0  0  0  0  0  0  0  0
   -4.8162   -0.3334   32.6126 C   0  0  0  0  0  0  0  0  0  0  0  0
   -4.2582   -2.5791   33.1658 C   0  0  0  0  0  0  0  0  0  0  0  0
   -5.2358   -2.6679   33.9830 C   0  0  0  0  0  0  0  0  0  0  0  0
   -5.7600   -0.3098   33.7288 C   0  0  0  0  0  0  0  0  0  0  0  0
   -5.8636   -1.4578   34.5236 C   0  0  0  0  0  0  0  0  0  0  0  0
   -2.2098   -1.6820   31.1216 C   0  0  0  0  0  0  0  0  0  0  0  0
  3  7  1  0
  9 12  1  0
 17 19  1  0
 19 20  1  0
 19 21  1  0
 21 22  1  0
 21 28  1  1
 12 14  2  0
 14 15  1  0
 15 16  2  0
 16 17  1  0
 17 18  2  0
 18 12  1  0
 22 23  2  0
 23 26  1  0
 26 27  2  0
 27 25  1  0
 25 24  2  0
 24 22  1  0
  1  2  2  0
  2  5  1  0
  5  6  2  0
  6  4  1  0
  4  3  2  0
  3  1  1  0
  7  8  2  0
  8  9  1  0
  9 13  2  0
 13 11  1  0
 11 10  2  0
 10  7  1  0
M  END
$$$$
