No_5324-complexes_sdf/6BKW-FPZ/2024-09-17-14-21-01/
     RDKit          3D

 40 44  0  0  0  0  0  0  0  0999 V2000
   -7.7129    4.2099   27.0854 C   0  0  0  0  0  0  0  0  0  0  0  0
   -8.2112    3.0637   26.9225 C   0  0  0  0  0  0  0  0  0  0  0  0
   -8.5108    5.3904   26.9436 C   0  0  0  0  0  0  0  0  0  0  0  0
   -7.9752    6.6981   27.2112 C   0  0  0  0  0  0  0  0  0  0  0  0
   -9.5213    2.8209   26.4688 C   0  0  0  0  0  0  0  0  0  0  0  0
  -10.2979    3.9327   26.2378 C   0  0  0  0  0  0  0  0  0  0  0  0
   -9.7894    5.2123   26.4395 C   0  0  0  0  0  0  0  0  0  0  0  0
   -7.3451    1.8185   27.1796 C   0  0  0  0  0  0  0  0  0  0  0  0
   -6.3082    2.1155   27.8266 F   0  0  0  0  0  0  0  0  0  0  0  0
   -7.0670    1.1872   26.0238 F   0  0  0  0  0  0  0  0  0  0  0  0
   -8.0315    0.8712   27.9723 F   0  0  0  0  0  0  0  0  0  0  0  0
   -6.9171    6.8902   27.8757 N   0  0  0  0  0  0  0  0  0  0  0  0
   -8.3629    7.8438   26.5215 N   0  0  0  0  0  0  0  0  0  0  0  0
  -11.6189    3.7730   25.6630 C   0  0  0  0  0  0  0  0  0  0  0  0
  -11.8126    3.7714   24.3208 C   0  0  0  0  0  0  0  0  0  0  0  0
  -13.0777    3.6127   23.7258 C   0  0  0  0  0  0  0  0  0  0  0  0
  -12.7135    3.6336   26.5175 C   0  0  0  0  0  0  0  0  0  0  0  0
  -14.0345    3.5615   25.9851 C   0  0  0  0  0  0  0  0  0  0  0  0
  -14.1861    3.5820   24.6024 C   0  0  0  0  0  0  0  0  0  0  0  0
  -12.5717    3.7455   28.0018 C   0  0  0  0  0  0  0  0  0  0  0  0
  -11.5333    3.5409   28.6286 C   0  0  0  0  0  0  0  0  0  0  0  0
  -11.7204    3.3907   30.1785 C   0  0  0  0  0  0  0  0  0  0  0  0
  -13.0252    3.4685   30.6699 C   0  0  0  0  0  0  0  0  0  0  0  0
  -13.7514    3.6324   29.0310 C   0  0  0  0  0  0  0  0  0  0  0  0
  -13.7274    3.4407   31.6989 C   0  0  0  0  0  0  0  0  0  0  0  0
  -13.7095    4.5557   32.4526 C   0  0  0  0  0  0  0  0  0  0  0  0
  -14.3266    4.5730   33.8029 C   0  0  0  0  0  0  0  0  0  0  0  0
  -14.0618    5.5949   34.7072 C   0  0  0  0  0  0  0  0  0  0  0  0
  -14.7086    5.6297   35.9493 C   0  0  0  0  0  0  0  0  0  0  0  0
  -14.3139    2.2957   32.1859 C   0  0  0  0  0  0  0  0  0  0  0  0
  -14.9304    2.2581   33.4450 N   0  0  0  0  0  0  0  0  0  0  0  0
  -14.8699    3.3839   34.2338 C   0  0  0  0  0  0  0  0  0  0  0  0
  -14.5071    6.7105   36.8349 C   0  0  0  0  0  0  0  0  0  0  0  0
  -13.5001    7.5887   36.5740 C   0  0  0  0  0  0  0  0  0  0  0  0
  -12.5976    7.3799   35.5206 C   0  0  0  0  0  0  0  0  0  0  0  0
  -12.9037    6.4491   34.6089 C   0  0  0  0  0  0  0  0  0  0  0  0
  -13.0599    8.6376   37.5997 C   0  0  0  0  0  0  0  0  0  0  0  0
  -13.2373    9.9119   37.4902 C   0  0  0  0  0  0  0  0  0  0  0  0
  -12.9302   10.8374   37.9956 C   0  0  0  0  0  0  0  0  0  0  0  0
  -12.1401   10.7109   39.2397 C   0  0  0  0  0  0  0  0  0  0  0  0
  3  4  1  0
  2  8  1  0
  8  9  1  0
  8 10  1  0
  8 11  1  0
  4 12  2  0
  4 13  1  0
  6 14  1  0
 17 20  1  0
 20 21  2  0
 21 22  1  0
 22 23  2  0
 20 24  1  0
 23 24  1  0
 23 25  1  0
 34 37  1  0
 37 38  2  3
 38 39  1  0
 39 40  2  0
 27 28  1  0
 28 29  2  0
 29 33  1  0
 33 34  2  0
 34 35  1  0
 35 36  2  0
 36 28  1  0
 25 26  2  0
 26 27  1  0
 27 32  2  0
 32 31  1  0
 31 30  2  0
 30 25  1  0
  1  2  2  0
  2  5  1  0
  5  6  2  0
  6  7  1  0
  7  3  2  0
  3  1  1  0
 14 15  2  0
 15 16  1  0
 16 19  2  0
 19 18  1  0
 18 17  2  0
 17 14  1  0
M  END
$$$$
