No_5512-complexes_sdf/6BKW-FPZ/2024-09-17-14-21-01/
     RDKit          3D

 40 43  0  0  0  0  0  0  0  0999 V2000
   -7.9040    3.9820   27.1177 C   0  0  0  0  0  0  0  0  0  0  0  0
   -8.2057    2.8231   26.8733 C   0  0  0  0  0  0  0  0  0  0  0  0
   -9.2962    2.4021   26.1155 C   0  0  0  0  0  0  0  0  0  0  0  0
   -8.7358    5.0662   26.5917 C   0  0  0  0  0  0  0  0  0  0  0  0
   -9.7618    4.7023   25.7546 C   0  0  0  0  0  0  0  0  0  0  0  0
  -10.0066    3.4105   25.4922 C   0  0  0  0  0  0  0  0  0  0  0  0
   -8.3943    6.4760   26.8801 C   0  0  0  0  0  0  0  0  0  0  0  0
   -8.6590    7.3213   26.1280 F   0  0  0  0  0  0  0  0  0  0  0  0
   -7.0387    6.4908   27.1906 F   0  0  0  0  0  0  0  0  0  0  0  0
   -9.0767    6.6237   28.1752 F   0  0  0  0  0  0  0  0  0  0  0  0
   -7.3568    1.6625   27.4892 C   0  0  0  0  0  0  0  0  0  0  0  0
   -7.7332    0.3323   27.3948 C   0  0  0  0  0  0  0  0  0  0  0  0
   -8.9493   -0.0245   26.7880 C   0  0  0  0  0  0  0  0  0  0  0  0
   -9.6914    1.0183   26.0466 C   0  0  0  0  0  0  0  0  0  0  0  0
   -6.9508   -0.6690   28.0738 C   0  0  0  0  0  0  0  0  0  0  0  0
   -7.4290   -1.8658   28.5432 C   0  0  0  0  0  0  0  0  0  0  0  0
   -6.6937   -2.7393   29.2179 C   0  0  0  0  0  0  0  0  0  0  0  0
   -5.3597   -2.4393   29.5476 C   0  0  0  0  0  0  0  0  0  0  0  0
   -4.7990   -1.2294   29.1184 C   0  0  0  0  0  0  0  0  0  0  0  0
   -5.5601   -0.3362   28.4499 C   0  0  0  0  0  0  0  0  0  0  0  0
   -3.4678   -0.8894   29.4415 N   0  0  0  0  0  0  0  0  0  0  0  0
   -3.2297   -0.2717   30.6199 C   0  0  0  0  0  0  0  0  0  0  0  0
   -2.4638   -1.1003   28.4992 C   0  0  0  0  0  0  0  0  0  0  0  0
   -2.3229   -0.2857   27.4686 C   0  0  0  0  0  0  0  0  0  0  0  0
   -3.2276    0.2508   26.6174 C   0  0  0  0  0  0  0  0  0  0  0  0
   -2.9343    1.2149   25.6012 C   0  0  0  0  0  0  0  0  0  0  0  0
   -3.5602   -0.9594   31.8636 C   0  0  0  0  0  0  0  0  0  0  0  0
   -2.8453   -1.9921   32.3723 C   0  0  0  0  0  0  0  0  0  0  0  0
   -1.5741   -2.3089   31.7692 C   0  0  0  0  0  0  0  0  0  0  0  0
   -0.8255   -3.3882   32.2739 C   0  0  0  0  0  0  0  0  0  0  0  0
    0.1626   -3.6341   31.6922 O   0  0  0  0  0  0  0  0  0  0  0  0
   -1.2323   -4.0428   33.2642 O   0  0  0  0  0  0  0  0  0  0  0  0
   -1.7660    1.7065   25.8230 N   0  0  0  0  0  0  0  0  0  0  0  0
   -1.5192    0.8236   27.1370 N   0  0  0  0  0  0  0  0  0  0  0  0
   -4.7882   -0.4305   32.4558 C   0  0  0  0  0  0  0  0  0  0  0  0
   -5.3390   -1.0534   33.6438 C   0  0  0  0  0  0  0  0  0  0  0  0
   -6.5240   -1.1234   33.9020 C   0  0  0  0  0  0  0  0  0  0  0  0
   -7.0403   -1.9516   35.0159 C   0  0  0  0  0  0  0  0  0  0  0  0
   -6.0576   -2.5309   35.8377 C   0  0  0  0  0  0  0  0  0  0  0  0
   -4.7379   -2.3864   35.6439 C   0  0  0  0  0  0  0  0  0  0  0  0
  4  7  1  0
  7  8  1  0
  7  9  1  0
  7 10  1  0
 12 15  1  0
 19 21  1  0
 21 22  1  0
 21 23  1  0
 23 24  1  0
 24 25  2  0
 25 26  1  0
 22 27  1  0
 27 28  2  3
 28 29  1  0
 29 30  1  0
 30 31  2  0
 30 32  1  0
 26 33  2  0
 24 34  1  0
 33 34  1  0
 27 35  1  0
 35 36  2  3
 36 37  1  0
 37 38  2  3
 38 39  1  0
 39 40  2  0
 15 16  2  0
 16 17  1  0
 17 18  2  0
 18 19  1  0
 19 20  2  0
 20 15  1  0
  3 14  1  0
 14 13  2  0
 13 12  1  0
 12 11  2  0
 11  2  1  0
  1  2  2  0
  2  3  1  0
  3  6  2  0
  6  5  1  0
  5  4  2  0
  4  1  1  0
M  END
$$$$
