No_5971-complexes_sdf/6BKW-FPZ/2024-09-17-14-21-01/
     RDKit          3D

 18 20  0  0  0  0  0  0  0  0999 V2000
   -7.9040    3.9820   27.1177 C   0  0  0  0  0  0  0  0  0  0  0  0
   -9.0711    4.3164   27.0630 C   0  0  0  0  0  0  0  0  0  0  0  0
   -9.5182    5.5541   27.5777 C   0  0  0  0  0  0  0  0  0  0  0  0
   -6.9424    4.7983   27.8424 C   0  0  0  0  0  0  0  0  0  0  0  0
   -7.3526    5.9739   28.3909 C   0  0  0  0  0  0  0  0  0  0  0  0
   -8.6479    6.3742   28.2169 C   0  0  0  0  0  0  0  0  0  0  0  0
  -10.2021    3.5782   26.4472 C   0  0  0  0  0  0  0  0  0  0  0  0
  -10.5649    3.5707   25.2641 C   0  0  0  0  0  0  0  0  0  0  0  0
  -11.5488    2.8015   24.5954 C   0  0  0  0  0  0  0  0  0  0  0  0
  -12.0945    1.7945   25.3633 C   0  0  0  0  0  0  0  0  0  0  0  0
  -10.8387    2.4026   27.0207 C   0  0  0  0  0  0  0  0  0  0  0  0
  -11.7292    1.6006   26.6259 C   0  0  0  0  0  0  0  0  0  0  0  0
  -10.1864    4.5743   24.2306 N   0  0  0  0  0  0  0  0  0  0  0  0
  -10.7893    4.2746   23.0379 C   0  0  0  0  0  0  0  0  0  0  0  0
  -11.6270    3.2569   23.3036 C   0  0  0  0  0  0  0  0  0  0  0  0
  -12.4773    2.7254   22.2202 C   0  0  0  0  0  0  0  0  0  0  0  0
  -13.4160    2.9431   21.8811 C   0  0  0  0  0  0  0  0  0  0  0  0
  -14.1966    2.2959   20.7767 C   0  0  0  0  0  0  0  0  0  0  0  0
  2  7  1  0
  8 13  1  0
 13 14  2  0
  9 15  1  0
 14 15  1  0
 15 16  1  0
 16 17  2  3
 17 18  1  0
  7  8  2  0
  8  9  1  0
  9 10  2  0
 10 12  1  0
 12 11  2  0
 11  7  1  0
  1  2  2  0
  2  3  1  0
  3  6  2  0
  6  5  1  0
  5  4  2  0
  4  1  1  0
M  END
$$$$
