No_5355-complexes_sdf/6BKW-FPZ/2024-09-17-14-21-01/
     RDKit          3D

 27 31  0  0  0  0  0  0  0  0999 V2000
   -7.7129    4.2099   27.0854 C   0  0  0  0  0  0  0  0  0  0  0  0
   -7.7814    5.1722   27.8972 C   0  0  0  0  0  0  0  0  0  0  0  0
   -8.8776    3.8408   26.3416 C   0  0  0  0  0  0  0  0  0  0  0  0
   -9.9844    4.6492   26.4743 C   0  0  0  0  0  0  0  0  0  0  0  0
   -8.7830    6.1594   27.8870 C   0  0  0  0  0  0  0  0  0  0  0  0
   -9.9269    5.8191   27.1183 C   0  0  0  0  0  0  0  0  0  0  0  0
   -8.8798    2.6033   25.5707 C   0  0  0  0  0  0  0  0  0  0  0  0
   -8.2954    1.4576   26.2000 C   0  0  0  0  0  0  0  0  0  0  0  0
   -8.9745    0.5281   26.5125 C   0  0  0  0  0  0  0  0  0  0  0  0
  -10.1944    0.6064   26.9479 C   0  0  0  0  0  0  0  0  0  0  0  0
  -10.9266    1.4476   27.1221 C   0  0  0  0  0  0  0  0  0  0  0  0
  -12.2921    1.4174   27.7949 C   0  0  0  0  0  0  0  0  0  0  0  0
  -12.6359    0.1820   28.2640 C   0  0  0  0  0  0  0  0  0  0  0  0
  -11.8651   -0.9373   28.1544 C   0  0  0  0  0  0  0  0  0  0  0  0
  -10.6702   -0.7948   27.6086 C   0  0  0  0  0  0  0  0  0  0  0  0
   -8.3054   -0.8551   26.3605 C   0  0  0  0  0  0  0  0  0  0  0  0
   -6.9602   -0.7891   26.1914 C   0  0  0  0  0  0  0  0  0  0  0  0
   -6.1546    0.1374   26.5894 C   0  0  0  0  0  0  0  0  0  0  0  0
   -6.6776    1.3741   25.9206 C   0  0  0  0  0  0  0  0  0  0  0  0
  -11.1256    4.3374   25.6038 C   0  0  0  0  0  0  0  0  0  0  0  0
  -12.3843    4.2218   26.0532 C   0  0  0  0  0  0  0  0  0  0  0  0
  -13.4565    3.9645   25.2388 C   0  0  0  0  0  0  0  0  0  0  0  0
  -13.2144    3.8211   23.8872 C   0  0  0  0  0  0  0  0  0  0  0  0
  -10.9729    4.2332   24.1824 C   0  0  0  0  0  0  0  0  0  0  0  0
  -11.9279    4.0112   23.3699 C   0  0  0  0  0  0  0  0  0  0  0  0
   -9.7368   -1.9240   27.5217 C   0  0  0  0  0  0  0  0  0  0  0  0
   -8.4680   -1.6437   27.6178 C   0  0  0  0  0  0  0  0  0  0  0  0
  3  7  1  0
  7  8  1  0
  9 10  1  0
  4 20  1  0
 15 26  1  0
 16 27  1  0
 26 27  1  0
  8  9  2  0
  9 16  1  0
 16 17  2  0
 17 18  1  0
 18 19  2  0
 19  8  1  0
 20 21  2  0
 21 22  1  0
 22 23  2  0
 23 25  1  0
 25 24  2  0
 24 20  1  0
 10 11  2  0
 11 12  1  0
 12 13  2  0
 13 14  1  0
 14 15  2  0
 15 10  1  0
  1  2  2  0
  2  5  1  0
  5  6  2  0
  6  4  1  0
  4  3  2  0
  3  1  1  0
M  END
$$$$
