No_5703-complexes_sdf/6BKW-FPZ/2024-09-17-14-21-01/
     RDKit          3D

 28 31  0  0  0  0  0  0  0  0999 V2000
   -7.7129    4.2099   27.0854 C   0  0  0  0  0  0  0  0  0  0  0  0
   -7.7814    5.1722   27.8972 C   0  0  0  0  0  0  0  0  0  0  0  0
   -8.8776    3.8408   26.3416 C   0  0  0  0  0  0  0  0  0  0  0  0
   -9.9844    4.6492   26.4743 C   0  0  0  0  0  0  0  0  0  0  0  0
   -8.8033    6.1375   27.8728 C   0  0  0  0  0  0  0  0  0  0  0  0
   -9.9554    5.8280   27.1736 C   0  0  0  0  0  0  0  0  0  0  0  0
   -8.6804    2.5787   25.5887 C   0  0  0  0  0  0  0  0  0  0  0  0
   -8.3238    1.5093   26.3050 N   0  0  0  0  0  0  0  0  0  0  0  0
   -8.9981    0.5176   26.6670 C   0  0  0  0  0  0  0  0  0  0  0  0
   -8.4198   -0.5123   27.4714 C   0  0  0  0  0  0  0  0  0  0  0  0
  -10.3579    0.3041   26.2593 C   0  0  0  0  0  0  0  0  0  0  0  0
   -7.0645   -0.4465   27.8779 C   0  0  0  0  0  0  0  0  0  0  0  0
   -6.3294    0.7395   27.4453 C   0  0  0  0  0  0  0  0  0  0  0  0
   -6.9089    1.6883   26.7467 C   0  0  0  0  0  0  0  0  0  0  0  0
  -11.1719   -0.1084   27.1526 C   0  0  0  0  0  0  0  0  0  0  0  0
  -10.6715   -1.1966   28.0852 C   0  0  0  0  0  0  0  0  0  0  0  0
   -9.2797   -1.3496   28.2771 C   0  0  0  0  0  0  0  0  0  0  0  0
   -4.8921    0.8138   27.8458 C   0  0  0  0  0  0  0  0  0  0  0  0
   -4.1758    1.4645   27.5298 C   0  0  0  0  0  0  0  0  0  0  0  0
   -4.5556   -0.2452   28.8770 C   0  0  2  0  0  0  0  0  0  0  0  0
   -3.8611    0.1802   29.9533 C   0  0  0  0  0  0  0  0  0  0  0  0
   -3.6556   -0.7615   30.9657 C   0  0  0  0  0  0  0  0  0  0  0  0
   -2.8513   -0.4291   32.1340 C   0  0  0  0  0  0  0  0  0  0  0  0
   -2.6221   -1.3905   33.0809 C   0  0  0  0  0  0  0  0  0  0  0  0
   -3.1922   -2.6129   32.9750 C   0  0  0  0  0  0  0  0  0  0  0  0
   -3.9476   -2.9119   31.9014 C   0  0  0  0  0  0  0  0  0  0  0  0
   -4.1679   -2.0094   30.9319 C   0  0  0  0  0  0  0  0  0  0  0  0
   -4.0180   -1.4655   28.1737 C   0  0  0  0  0  0  0  0  0  0  0  0
  3  7  1  0
  7  8  1  0
  8  9  1  0
 10 12  1  0
  8 14  1  0
 13 14  1  0
 13 18  1  0
 18 19  1  0
 18 20  1  0
 20 21  1  0
 20 28  1  6
 21 22  1  0
 12 13  1  0
 22 23  2  0
 23 24  1  0
 24 25  2  0
 25 26  1  0
 26 27  2  0
 27 22  1  0
  1  2  2  0
  2  5  1  0
  5  6  2  0
  6  4  1  0
  4  3  2  0
  3  1  1  0
  9 11  2  0
 11 15  1  0
 15 16  2  0
 16 17  1  0
 17 10  2  0
 10  9  1  0
M  END
$$$$
