No_5106-complexes_sdf/6BKW-FPZ/2024-09-17-14-21-01/
     RDKit          3D

 26 28  0  0  0  0  0  0  0  0999 V2000
   -7.9040    3.9820   27.1177 C   0  0  0  0  0  0  0  0  0  0  0  0
   -9.0711    4.3164   27.0630 C   0  0  0  0  0  0  0  0  0  0  0  0
  -10.0395    3.8218   27.1938 C   0  0  0  0  0  0  0  0  0  0  0  0
   -7.6424    2.5858   27.3610 C   0  0  0  0  0  0  0  0  0  0  0  0
   -8.7741    1.7889   27.4566 C   0  0  0  0  0  0  0  0  0  0  0  0
  -10.0155    2.3581   27.4300 C   0  0  0  0  0  0  0  0  0  0  0  0
   -9.1463    5.9504   26.8742 C   0  0  0  0  0  0  0  0  0  0  0  0
   -7.9769    6.3056   27.1528 F   0  0  0  0  0  0  0  0  0  0  0  0
   -9.2918    6.2085   25.5277 F   0  0  0  0  0  0  0  0  0  0  0  0
  -10.0496    6.5378   27.5806 F   0  0  0  0  0  0  0  0  0  0  0  0
   -5.9436    1.7934   27.3572 Br  0  0  0  0  0  0  0  0  0  0  0  0
  -11.2381    1.5893   27.6519 C   0  0  0  0  0  0  0  0  0  0  0  0
  -12.0816    1.4193   26.6028 C   0  0  0  0  0  0  0  0  0  0  0  0
  -13.2745    0.6615   26.8409 C   0  0  0  0  0  0  0  0  0  0  0  0
  -13.5347    0.2498   27.7473 C   0  0  0  0  0  0  0  0  0  0  0  0
  -12.7384    0.3439   29.0308 C   0  0  0  0  0  0  0  0  0  0  0  0
  -11.5604    1.0546   28.9410 C   0  0  0  0  0  0  0  0  0  0  0  0
  -14.0919    0.5114   25.6899 O   0  0  0  0  0  0  0  0  0  0  0  0
  -14.2285    1.2652   24.6807 C   0  0  0  0  0  0  0  0  0  0  0  0
  -15.0827    1.0175   23.8733 C   0  0  0  0  0  0  0  0  0  0  0  0
  -15.9347    0.0068   23.9351 C   0  0  0  0  0  0  0  0  0  0  0  0
  -16.9547   -0.2807   22.9256 C   0  0  0  0  0  0  0  0  0  0  0  0
  -17.0183    0.6052   21.8424 C   0  0  0  0  0  0  0  0  0  0  0  0
  -16.1923    1.6661   21.6965 C   0  0  0  0  0  0  0  0  0  0  0  0
  -15.1848    1.9545   22.6940 C   0  0  0  0  0  0  0  0  0  0  0  0
  -18.2031    0.2907   20.6853 Cl  0  0  0  0  0  0  0  0  0  0  0  0
  2  7  1  0
  7  8  1  0
  7  9  1  0
  7 10  1  0
  4 11  1  0
  6 12  1  0
 14 18  1  0
 18 19  1  0
 23 26  1  0
 19 20  1  0
 12 13  2  0
 13 14  1  0
 14 15  2  0
 15 16  1  0
 16 17  2  0
 17 12  1  0
  1  2  2  0
  2  3  1  0
  3  6  2  0
  6  5  1  0
  5  4  2  0
  4  1  1  0
 20 21  2  0
 21 22  1  0
 22 23  2  0
 23 24  1  0
 24 25  2  0
 25 20  1  0
M  END
$$$$
