No_5089-complexes_sdf/6BKW-FPZ/2024-09-17-14-21-01/
     RDKit          3D

 29 32  0  0  0  0  0  0  0  0999 V2000
   -7.2496    3.8871   27.4508 C   0  0  0  0  0  0  0  0  0  0  0  0
   -7.9379    4.9063   27.8518 C   0  0  0  0  0  0  0  0  0  0  0  0
   -9.3460    4.8223   27.8695 C   0  0  0  0  0  0  0  0  0  0  0  0
   -7.8628    2.6163   27.1065 C   0  0  0  0  0  0  0  0  0  0  0  0
   -9.2787    2.5744   27.1970 C   0  0  0  0  0  0  0  0  0  0  0  0
  -10.0108    3.6770   27.6340 C   0  0  0  0  0  0  0  0  0  0  0  0
  -11.4834    3.5674   27.7432 C   0  0  0  0  0  0  0  0  0  0  0  0
  -12.3295    3.8838   27.2730 C   0  0  0  0  0  0  0  0  0  0  0  0
  -13.7775    3.8550   27.5201 C   0  0  0  0  0  0  0  0  0  0  0  0
  -11.8811    2.7541   28.9768 C   0  0  0  0  0  0  0  0  0  0  0  0
  -13.1198    2.5435   29.3867 C   0  0  0  0  0  0  0  0  0  0  0  0
  -14.1235    3.1476   28.6319 C   0  0  0  0  0  0  0  0  0  0  0  0
   -7.1096    1.4670   26.7660 C   0  0  0  0  0  0  0  0  0  0  0  0
   -7.6798    0.5255   25.9135 C   0  0  0  0  0  0  0  0  0  0  0  0
   -6.9632   -0.6409   25.5898 C   0  0  0  0  0  0  0  0  0  0  0  0
   -5.6996   -0.8528   26.1792 C   0  0  0  0  0  0  0  0  0  0  0  0
   -5.1974    0.0571   27.1213 C   0  0  0  0  0  0  0  0  0  0  0  0
   -5.8807    1.1994   27.4373 C   0  0  0  0  0  0  0  0  0  0  0  0
   -7.3217    6.1129   28.1557 N   0  0  0  0  0  0  0  0  0  0  0  0
   -3.8652   -0.1721   27.7467 C   0  0  2  0  0  0  0  0  0  0  0  0
   -3.8645    0.0582   29.1552 C   0  0  0  0  0  0  0  0  0  0  0  0
   -2.9608   -0.6872   30.0272 C   0  0  0  0  0  0  0  0  0  0  0  0
   -3.0721   -0.4895   31.4353 C   0  0  0  0  0  0  0  0  0  0  0  0
   -4.0396    0.4640   31.9298 C   0  0  0  0  0  0  0  0  0  0  0  0
   -4.9599    0.9176   31.0437 C   0  0  0  0  0  0  0  0  0  0  0  0
   -4.8744    0.7639   29.8008 C   0  0  0  0  0  0  0  0  0  0  0  0
   -2.6915   -0.4074   27.0484 C   0  0  0  0  0  0  0  0  0  0  0  0
   -1.8507   -1.2337   27.4913 C   0  0  0  0  0  0  0  0  0  0  0  0
   -1.9797    0.9856   26.7697 C   0  0  0  0  0  0  0  0  0  0  0  0
  6  7  1  0
  4 13  1  0
  2 19  1  0
 17 20  1  0
 20 21  1  0
 20 27  1  6
 27 28  1  0
 27 29  1  0
 13 14  2  0
 14 15  1  0
 15 16  2  0
 16 17  1  0
 17 18  2  0
 18 13  1  0
  1  2  2  0
  2  3  1  0
  3  6  2  0
  6  5  1  0
  5  4  2  0
  4  1  1  0
  7  8  2  0
  8  9  1  0
  9 12  2  0
 12 11  1  0
 11 10  2  0
 10  7  1  0
 21 22  2  0
 22 23  1  0
 23 24  2  0
 24 25  1  0
 25 26  2  0
 26 21  1  0
M  END
$$$$
