No_5645-complexes_sdf/6BKW-FPZ/2024-09-17-14-21-01/
     RDKit          3D

 22 25  0  0  0  0  0  0  0  0999 V2000
   -7.9040    3.9820   27.1177 C   0  0  0  0  0  0  0  0  0  0  0  0
   -9.0711    4.3164   27.0630 C   0  0  0  0  0  0  0  0  0  0  0  0
   -9.5294    5.4517   27.7215 C   0  0  0  0  0  0  0  0  0  0  0  0
   -6.9328    4.7309   27.8881 C   0  0  0  0  0  0  0  0  0  0  0  0
   -7.3377    5.8421   28.5537 C   0  0  0  0  0  0  0  0  0  0  0  0
   -8.6411    6.2609   28.3972 C   0  0  0  0  0  0  0  0  0  0  0  0
  -10.0467    3.4917   26.2630 C   0  0  0  0  0  0  0  0  0  0  0  0
   -9.5472    2.5898   25.4413 C   0  0  0  0  0  0  0  0  0  0  0  0
  -10.1940    2.2424   24.2992 C   0  0  0  0  0  0  0  0  0  0  0  0
  -11.4809    2.7447   24.0368 C   0  0  0  0  0  0  0  0  0  0  0  0
  -11.9819    3.7418   24.8850 C   0  0  0  0  0  0  0  0  0  0  0  0
  -11.2095    4.2355   25.9025 C   0  0  0  0  0  0  0  0  0  0  0  0
   -9.7280    1.0806   23.4355 C   0  0  0  0  0  0  0  0  0  0  0  0
   -8.6976    0.3634   23.8222 C   0  0  0  0  0  0  0  0  0  0  0  0
   -8.0837   -0.5189   22.9550 C   0  0  0  0  0  0  0  0  0  0  0  0
   -8.6488   -0.7389   21.6754 C   0  0  0  0  0  0  0  0  0  0  0  0
  -10.2164    0.8591   22.1764 C   0  0  0  0  0  0  0  0  0  0  0  0
   -9.6827    0.0095   21.3172 C   0  0  0  0  0  0  0  0  0  0  0  0
   -8.2547   -1.7183   20.6672 C   0  0  0  0  0  0  0  0  0  0  0  0
   -8.9255   -2.1555   19.6309 C   0  0  0  0  0  0  0  0  0  0  0  0
  -10.1085   -1.3503   19.4166 C   0  0  0  0  0  0  0  0  0  0  0  0
  -10.4565   -0.3437   20.1811 C   0  0  0  0  0  0  0  0  0  0  0  0
  2  7  1  0
  9 13  1  0
  1  2  2  0
  2  3  1  0
  3  6  2  0
  6  5  1  0
  5  4  2  0
  4  1  1  0
 13 14  2  0
 14 15  1  0
 15 16  2  0
 18 17  2  0
 17 13  1  0
  7  8  2  0
  8  9  1  0
  9 10  2  0
 10 11  1  0
 11 12  2  0
 12  7  1  0
 16 18  1  0
 18 22  1  0
 22 21  2  0
 21 20  1  0
 20 19  2  0
 19 16  1  0
M  END
$$$$
