No_5518-complexes_sdf/6BKW-FPZ/2024-09-17-14-21-01/
     RDKit          3D

 26 28  0  0  0  0  0  0  0  0999 V2000
   -7.7129    4.2099   27.0854 C   0  0  0  0  0  0  0  0  0  0  0  0
   -7.7814    5.1722   27.8972 C   0  0  0  0  0  0  0  0  0  0  0  0
   -7.3155    2.9699   27.6145 C   0  0  0  0  0  0  0  0  0  0  0  0
   -7.9010    1.7962   27.2023 C   0  0  0  0  0  0  0  0  0  0  0  0
   -8.9578    1.9047   26.2707 C   0  0  0  0  0  0  0  0  0  0  0  0
   -9.3989    3.1000   25.8096 C   0  0  0  0  0  0  0  0  0  0  0  0
   -8.8948    4.1615   26.3218 C   0  0  0  0  0  0  0  0  0  0  0  0
   -8.2271    6.4668   27.5438 N   0  0  0  0  0  0  0  0  0  0  0  0
   -9.0798    6.6377   26.5319 C   0  0  0  0  0  0  0  0  0  0  0  0
   -9.5047    5.4887   25.9469 C   0  0  0  0  0  0  0  0  0  0  0  0
   -7.1050    0.5934   27.6008 C   0  0  0  0  0  0  0  0  0  0  0  0
   -7.8900   -0.6085   27.8436 C   0  0  0  0  0  0  0  0  0  0  0  0
   -7.2583   -1.7520   28.3544 C   0  0  0  0  0  0  0  0  0  0  0  0
   -5.8634   -1.6789   28.5502 C   0  0  0  0  0  0  0  0  0  0  0  0
   -5.1261   -0.5440   28.2578 C   0  0  0  0  0  0  0  0  0  0  0  0
   -5.7689    0.5816   27.8669 C   0  0  0  0  0  0  0  0  0  0  0  0
   -3.6683   -0.4781   28.5924 C   0  0  0  0  0  0  0  0  0  0  0  0
   -3.4155    0.0950   29.6639 F   0  0  0  0  0  0  0  0  0  0  0  0
   -3.2168   -1.7691   28.5885 F   0  0  0  0  0  0  0  0  0  0  0  0
   -3.0801    0.1615   27.5082 F   0  0  0  0  0  0  0  0  0  0  0  0
  -10.4215    3.0427   24.7717 C   0  0  0  0  0  0  0  0  0  0  0  0
  -10.3253    2.2609   23.7261 C   0  0  0  0  0  0  0  0  0  0  0  0
  -10.0597    0.9809   23.8797 C   0  0  0  0  0  0  0  0  0  0  0  0
   -9.2353    0.5360   25.0059 C   0  0  0  0  0  0  0  0  0  0  0  0
  -10.5801    1.4681   27.2475 Cl  0  0  0  0  0  0  0  0  0  0  0  0
   -8.5599   -0.8732   25.3854 Cl  0  0  0  0  0  0  0  0  0  0  0  0
  4 11  1  0
 15 17  1  0
 17 18  1  0
 17 19  1  0
 17 20  1  0
  6 21  1  0
 21 22  1  0
 22 23  2  3
 23 24  1  0
  5 25  1  0
 24 26  1  0
 11 12  2  0
 12 13  1  0
 13 14  2  0
 14 15  1  0
 15 16  2  0
 16 11  1  0
  1  2  2  0
  2  8  1  0
  8  9  2  0
  9 10  1  0
 10  7  2  0
  1  3  1  0
  3  4  2  0
  4  5  1  0
  5  6  2  0
  6  7  1  0
  7  1  1  0
M  END
$$$$
