No_5104-complexes_sdf/6BKW-FPZ/2024-09-17-14-21-01/
     RDKit          3D

 35 41  0  0  0  0  0  0  0  0999 V2000
   -7.2496    3.8871   27.4508 C   0  0  0  0  0  0  0  0  0  0  0  0
   -7.6161    2.7143   27.1523 C   0  0  0  0  0  0  0  0  0  0  0  0
   -7.1618    1.8631   27.5233 C   0  0  0  0  0  0  0  0  0  0  0  0
   -8.0036    5.1085   27.2100 C   0  0  1  0  0  0  0  0  0  0  0  0
   -9.1035    5.1173   26.6797 C   0  0  0  0  0  0  0  0  0  0  0  0
   -9.6475    3.9396   26.1445 C   0  0  0  0  0  0  0  0  0  0  0  0
   -9.0386    2.8665   26.4511 C   0  0  0  0  0  0  0  0  0  0  0  0
   -7.6008    0.4341   27.3979 C   0  0  0  0  0  0  0  0  0  0  0  0
   -8.9300    0.3072   27.0233 C   0  0  0  0  0  0  0  0  0  0  0  0
   -9.6580    1.5215   26.3375 C   0  0  0  0  0  0  0  0  0  0  0  0
   -7.3915    6.3136   27.7668 N   0  0  0  0  0  0  0  0  0  0  0  0
  -10.9408    1.2953   25.8436 C   0  0  1  0  0  0  0  0  0  0  0  0
  -11.0105    1.2044   24.5302 C   0  0  0  0  0  0  0  0  0  0  0  0
   -9.9946    0.9343   23.7430 C   0  0  0  0  0  0  0  0  0  0  0  0
   -9.9634    1.0674   22.2899 C   0  0  0  0  0  0  0  0  0  0  0  0
  -11.0695    1.4680   21.6471 C   0  0  0  0  0  0  0  0  0  0  0  0
  -11.9495    1.8787   23.7007 C   0  0  0  0  0  0  0  0  0  0  0  0
  -12.1165    1.8717   22.3569 C   0  0  0  0  0  0  0  0  0  0  0  0
  -11.5973    0.0470   26.4875 C   0  0  1  0  0  0  0  0  0  0  0  0
   -9.6429   -0.8557   27.0115 C   0  0  0  0  0  0  0  0  0  0  0  0
  -10.9105   -1.0392   26.8045 C   0  0  0  0  0  0  0  0  0  0  0  0
  -11.8301    2.4010   26.3879 N   0  0  0  0  0  0  0  0  0  0  0  0
  -12.6835    2.4433   27.2493 C   0  0  0  0  0  0  0  0  0  0  0  0
  -13.2706    3.6841   27.6159 C   0  0  0  0  0  0  0  0  0  0  0  0
  -13.4273    4.0870   28.9245 C   0  0  0  0  0  0  0  0  0  0  0  0
  -13.3266    3.0523   29.9826 C   0  0  0  0  0  0  0  0  0  0  0  0
  -12.7352    1.8405   29.5655 C   0  0  0  0  0  0  0  0  0  0  0  0
  -12.3462    1.6024   28.3009 C   0  0  0  0  0  0  0  0  0  0  0  0
  -12.3239    0.5793   27.9210 C   0  0  0  0  0  0  0  0  0  0  0  0
  -13.5424    3.4811   31.3685 C   0  0  0  0  0  0  0  0  0  0  0  0
  -14.5891    4.2348   31.7234 C   0  0  0  0  0  0  0  0  0  0  0  0
  -14.7152    4.6412   33.0796 C   0  0  0  0  0  0  0  0  0  0  0  0
  -13.7415    4.3171   34.0143 C   0  0  0  0  0  0  0  0  0  0  0  0
  -12.6920    3.4351   33.6156 C   0  0  0  0  0  0  0  0  0  0  0  0
  -12.6097    3.1231   32.3588 C   0  0  0  0  0  0  0  0  0  0  0  0
  1  2  1  0
  1  4  1  0
  4  5  1  0
  5  6  1  0
  6  7  1  0
  4 11  1  1
 10 12  1  0
 12 13  1  6
 12 19  1  0
  9 20  1  0
 12 22  1  0
 22 23  1  0
 19 29  1  1
 28 29  1  0
 26 30  1  0
 20 21  1  0
 21 19  1  0
 23 24  2  0
 24 25  1  0
 25 26  2  0
 26 27  1  0
 27 28  2  0
 28 23  1  0
 30 31  2  0
 31 32  1  0
 32 33  2  0
 33 34  1  0
 34 35  2  0
 35 30  1  0
 13 14  2  0
 14 15  1  0
 15 16  2  0
 16 18  1  0
 18 17  2  0
 17 13  1  0
  2  3  2  0
  3  8  1  0
  8  9  2  0
  9 10  1  0
 10  7  2  0
  7  2  1  0
M  END
$$$$
