No_5713-complexes_sdf/6BKW-FPZ/2024-09-17-14-21-01/
     RDKit          3D

 36 38  0  0  0  0  0  0  0  0999 V2000
   -7.9040    3.9820   27.1177 C   0  0  0  0  0  0  0  0  0  0  0  0
   -8.2057    2.8231   26.8733 C   0  0  0  0  0  0  0  0  0  0  0  0
   -8.7695    5.0740   26.7916 C   0  0  0  0  0  0  0  0  0  0  0  0
   -8.4337    6.4678   27.0913 C   0  0  0  0  0  0  0  0  0  0  0  0
   -9.3742    2.4311   26.2346 C   0  0  0  0  0  0  0  0  0  0  0  0
  -10.2395    3.4267   25.8887 C   0  0  0  0  0  0  0  0  0  0  0  0
   -9.9567    4.7548   26.1374 C   0  0  0  0  0  0  0  0  0  0  0  0
   -8.5581    6.7982   28.2290 F   0  0  0  0  0  0  0  0  0  0  0  0
   -7.1198    6.7558   26.7218 F   0  0  0  0  0  0  0  0  0  0  0  0
   -9.1462    7.3254   26.2867 F   0  0  0  0  0  0  0  0  0  0  0  0
   -7.2384    1.6922   27.3204 C   0  0  0  0  0  0  0  0  0  0  0  0
   -5.9416    1.9749   27.7749 C   0  0  0  0  0  0  0  0  0  0  0  0
   -5.0772    0.9273   28.1935 C   0  0  0  0  0  0  0  0  0  0  0  0
   -5.5136   -0.3656   28.1455 C   0  0  0  0  0  0  0  0  0  0  0  0
   -7.5746    0.3363   27.3046 C   0  0  0  0  0  0  0  0  0  0  0  0
   -6.7726   -0.6352   27.7693 C   0  0  0  0  0  0  0  0  0  0  0  0
   -4.5602   -1.3905   28.6987 C   0  0  0  0  0  0  0  0  0  0  0  0
   -4.6136   -1.9838   29.6196 C   0  0  0  0  0  0  0  0  0  0  0  0
   -5.6775   -1.6729   30.7156 C   0  0  0  0  0  0  0  0  0  0  0  0
   -5.5995   -1.7362   31.7747 C   0  0  0  0  0  0  0  0  0  0  0  0
   -6.5878   -1.2243   32.8164 C   0  0  0  0  0  0  0  0  0  0  0  0
   -4.3775   -2.2864   32.5466 C   0  0  0  0  0  0  0  0  0  0  0  0
   -4.3428   -2.4348   33.9118 C   0  0  0  0  0  0  0  0  0  0  0  0
   -6.4494   -1.3911   34.1876 C   0  0  0  0  0  0  0  0  0  0  0  0
   -5.3465   -1.9410   34.7702 C   0  0  0  0  0  0  0  0  0  0  0  0
   -3.4674   -1.5754   27.7038 C   0  0  0  0  0  0  0  0  0  0  0  0
   -2.9069   -0.6014   27.1212 C   0  0  0  0  0  0  0  0  0  0  0  0
   -3.0962   -2.9122   27.3636 C   0  0  0  0  0  0  0  0  0  0  0  0
  -11.4683    3.1794   25.1276 C   0  0  0  0  0  0  0  0  0  0  0  0
  -12.5560    2.8869   25.7827 C   0  0  0  0  0  0  0  0  0  0  0  0
  -12.7037    2.4933   26.8748 C   0  0  0  0  0  0  0  0  0  0  0  0
  -13.3243    2.2870   27.7802 C   0  0  0  0  0  0  0  0  0  0  0  0
  -12.9819    1.6075   29.0953 C   0  0  0  0  0  0  0  0  0  0  0  0
  -13.7823    1.4232   30.1986 C   0  0  0  0  0  0  0  0  0  0  0  0
  -15.0841    1.9022   30.1534 C   0  0  0  0  0  0  0  0  0  0  0  0
  -15.5169    2.5391   29.0195 C   0  0  0  0  0  0  0  0  0  0  0  0
  3  4  1  0
  4  8  1  0
  4  9  1  0
  4 10  1  0
  2 11  1  0
 14 17  1  0
 17 18  2  3
 18 19  1  0
 17 26  1  0
 26 27  1  0
 26 28  1  0
  6 29  1  0
 29 30  1  0
 30 31  2  3
 31 32  1  0
 32 33  2  3
 33 34  1  0
 34 35  2  3
 35 36  1  0
 19 20  1  0
 20 21  2  0
 21 24  1  0
 24 25  2  0
 25 23  1  0
 23 22  2  0
 22 20  1  0
 11 12  2  0
 12 13  1  0
 13 14  2  0
 14 16  1  0
 16 15  2  0
 15 11  1  0
  1  2  2  0
  2  5  1  0
  5  6  2  0
  6  7  1  0
  7  3  2  0
  3  1  1  0
M  END
$$$$
