No_5239-complexes_sdf/6BKW-FPZ/2024-09-17-14-21-01/
     RDKit          3D

 13 14  0  0  0  0  0  0  0  0999 V2000
   -7.7129    4.2099   27.0854 C   0  0  0  0  0  0  0  0  0  0  0  0
   -8.9133    4.4736   27.0998 C   0  0  2  0  0  0  0  0  0  0  0  0
   -9.7135    3.9633   26.0300 C   0  0  0  0  0  0  0  0  0  0  0  0
   -6.8420    4.9760   28.0851 C   0  0  0  0  0  0  0  0  0  0  0  0
   -9.9322    2.5915   25.9958 C   0  0  0  0  0  0  0  0  0  0  0  0
  -10.4230    2.0654   24.9049 C   0  0  0  0  0  0  0  0  0  0  0  0
  -10.1456    0.8605   24.4617 C   0  0  0  0  0  0  0  0  0  0  0  0
   -9.4141   -0.0339   25.3116 C   0  0  0  0  0  0  0  0  0  0  0  0
   -8.8595    0.4740   26.4945 C   0  0  0  0  0  0  0  0  0  0  0  0
   -9.0222    1.8586   26.7877 C   0  0  0  0  0  0  0  0  0  0  0  0
   -7.7459    5.8547   28.5995 N   0  0  0  0  0  0  0  0  0  0  0  0
   -9.0493    5.6659   27.8972 C   0  0  0  0  0  0  0  0  0  0  0  0
  -10.4394    4.8149   25.3430 O   0  0  0  0  0  0  0  0  0  0  0  0
  1  2  1  0
  2  3  1  6
  1  4  1  0
  3  5  1  0
  4 11  2  0
  2 12  1  0
 11 12  1  0
  3 13  2  0
  5  6  2  0
  6  7  1  0
  7  8  2  0
  8  9  1  0
  9 10  2  0
 10  5  1  0
M  END
$$$$
