No_5394-complexes_sdf/6BKW-FPZ/2024-09-17-14-21-01/
     RDKit          3D

 40 44  0  0  0  0  0  0  0  0999 V2000
   -7.2496    3.8871   27.4508 C   0  0  0  0  0  0  0  0  0  0  0  0
   -7.6161    2.7143   27.1523 C   0  0  0  0  0  0  0  0  0  0  0  0
   -7.1619    1.8631   27.5232 C   0  0  0  0  0  0  0  0  0  0  0  0
   -8.0036    5.1085   27.2100 C   0  0  1  0  0  0  0  0  0  0  0  0
   -7.6739    6.3858   27.8565 C   0  0  0  0  0  0  0  0  0  0  0  0
   -8.9387    5.1580   26.1129 C   0  0  0  0  0  0  0  0  0  0  0  0
   -5.7242    1.9287   27.9880 C   0  0  0  0  0  0  0  0  0  0  0  0
   -5.1544    3.1630   28.1117 C   0  0  0  0  0  0  0  0  0  0  0  0
   -5.8769    4.1518   27.9142 C   0  0  0  0  0  0  0  0  0  0  0  0
   -4.9238    0.6536   28.2445 C   0  0  0  0  0  0  0  0  0  0  0  0
   -5.4729   -0.3009   28.7348 O   0  0  0  0  0  0  0  0  0  0  0  0
   -3.5753    0.8327   28.5042 N   0  0  0  0  0  0  0  0  0  0  0  0
   -2.7116   -0.2404   28.9250 C   0  0  0  0  0  0  0  0  0  0  0  0
   -2.8540   -0.6565   30.1801 C   0  0  0  0  0  0  0  0  0  0  0  0
   -2.0872   -1.6984   30.6674 C   0  0  0  0  0  0  0  0  0  0  0  0
   -1.1097   -2.2262   29.8267 C   0  0  0  0  0  0  0  0  0  0  0  0
   -0.9727   -1.7534   28.5344 C   0  0  0  0  0  0  0  0  0  0  0  0
   -1.7546   -0.7273   28.0789 C   0  0  0  0  0  0  0  0  0  0  0  0
  -10.0282    4.2775   26.1273 C   0  0  0  0  0  0  0  0  0  0  0  0
  -10.6270    4.0060   24.8639 C   0  0  0  0  0  0  0  0  0  0  0  0
  -11.6932    3.1101   24.7525 C   0  0  0  0  0  0  0  0  0  0  0  0
  -12.0991    2.4600   25.8715 C   0  0  0  0  0  0  0  0  0  0  0  0
  -11.5386    2.6864   27.1056 C   0  0  0  0  0  0  0  0  0  0  0  0
  -10.4948    3.6155   27.2796 C   0  0  0  0  0  0  0  0  0  0  0  0
  -12.1253    1.9875   28.3218 C   0  0  1  0  0  0  0  0  0  0  0  0
  -11.6919    0.7033   28.5536 C   0  0  0  0  0  0  0  0  0  0  0  0
  -12.9010    2.6724   29.2634 C   0  0  0  0  0  0  0  0  0  0  0  0
  -14.1014    2.7576   29.2425 C   0  0  0  0  0  0  0  0  0  0  0  0
  -14.8736    3.5436   30.2164 C   0  0  0  0  0  0  0  0  0  0  0  0
  -16.1042    3.9803   30.0555 C   0  0  0  0  0  0  0  0  0  0  0  0
  -16.7923    3.5011   28.9101 C   0  0  0  0  0  0  0  0  0  0  0  0
  -16.1597    2.7440   27.9888 C   0  0  0  0  0  0  0  0  0  0  0  0
  -14.8501    2.4757   28.0877 C   0  0  0  0  0  0  0  0  0  0  0  0
  -10.5276    0.1519   27.9733 C   0  0  0  0  0  0  0  0  0  0  0  0
  -10.1411   -1.1637   28.2412 C   0  0  0  0  0  0  0  0  0  0  0  0
  -10.8466   -1.9205   29.1994 C   0  0  0  0  0  0  0  0  0  0  0  0
  -12.0272   -1.3864   29.7533 C   0  0  0  0  0  0  0  0  0  0  0  0
  -12.4176   -0.1175   29.4717 C   0  0  0  0  0  0  0  0  0  0  0  0
  -12.2438    2.9126   23.6315 F   0  0  0  0  0  0  0  0  0  0  0  0
  -10.4166   -3.3000   29.4966 C   0  0  0  0  0  0  0  0  0  0  0  0
  1  4  1  0
  4  5  1  6
  4  6  1  0
  7 10  1  0
 10 11  2  0
 10 12  1  0
 12 13  1  0
  6 19  1  0
 23 25  1  0
 25 26  1  0
 25 27  1  1
 21 39  1  0
 36 40  1  0
 27 28  1  0
  1  2  2  0
  2  3  1  0
  3  7  2  0
  7  8  1  0
  8  9  2  0
  9  1  1  0
 19 20  2  0
 20 21  1  0
 21 22  2  0
 22 23  1  0
 23 24  2  0
 24 19  1  0
 26 34  2  0
 34 35  1  0
 35 36  2  0
 36 37  1  0
 37 38  2  0
 38 26  1  0
 28 29  2  0
 29 30  1  0
 30 31  2  0
 31 32  1  0
 32 33  2  0
 33 28  1  0
 13 14  2  0
 14 15  1  0
 15 16  2  0
 16 17  1  0
 17 18  2  0
 18 13  1  0
M  END
$$$$
