No_5675-complexes_sdf/6BKW-FPZ/2024-09-17-14-21-01/
     RDKit          3D

 13 14  0  0  0  0  0  0  0  0999 V2000
   -7.7129    4.2099   27.0854 C   0  0  0  0  0  0  0  0  0  0  0  0
   -7.7814    5.1722   27.8972 C   0  0  0  0  0  0  0  0  0  0  0  0
   -8.8776    3.8408   26.3416 C   0  0  0  0  0  0  0  0  0  0  0  0
   -8.9136    2.6330   25.5655 C   0  0  0  0  0  0  0  0  0  0  0  0
   -8.8380    6.0976   27.6639 C   0  0  0  0  0  0  0  0  0  0  0  0
   -9.7292    4.8836   26.1616 C   0  0  0  0  0  0  0  0  0  0  0  0
   -9.8251    5.9571   26.8382 C   0  0  0  0  0  0  0  0  0  0  0  0
   -8.3147    1.4827   26.2146 C   0  0  0  0  0  0  0  0  0  0  0  0
   -8.1022    0.3062   25.5609 C   0  0  0  0  0  0  0  0  0  0  0  0
   -7.4711   -0.7485   26.1763 C   0  0  0  0  0  0  0  0  0  0  0  0
   -6.9769   -0.6075   27.5050 C   0  0  0  0  0  0  0  0  0  0  0  0
   -7.0642    0.6647   28.0811 C   0  0  0  0  0  0  0  0  0  0  0  0
   -7.6654    1.6923   27.5135 C   0  0  0  0  0  0  0  0  0  0  0  0
  3  4  1  0
  4  8  1  0
  8  9  2  0
  9 10  1  0
 10 11  2  0
 11 12  1  0
 12 13  2  0
 13  8  1  0
  1  2  2  0
  2  5  1  0
  5  7  2  0
  7  6  1  0
  6  3  2  0
  3  1  1  0
M  END
$$$$
