No_5994-complexes_sdf/6BKW-FPZ/2024-09-17-14-21-01/
     RDKit          3D

 27 29  0  0  0  0  0  0  0  0999 V2000
   -7.7129    4.2099   27.0854 C   0  0  0  0  0  0  0  0  0  0  0  0
   -8.2112    3.0637   26.9225 C   0  0  0  0  0  0  0  0  0  0  0  0
   -7.5138    1.9223   27.4249 C   0  0  0  0  0  0  0  0  0  0  0  0
   -8.5309    5.4147   26.8151 C   0  0  0  0  0  0  0  0  0  0  0  0
   -9.6817    5.2393   26.1100 C   0  0  0  0  0  0  0  0  0  0  0  0
  -10.1032    3.9957   25.8534 C   0  0  0  0  0  0  0  0  0  0  0  0
   -9.4034    2.8430   26.2573 C   0  0  0  0  0  0  0  0  0  0  0  0
   -6.1405    1.9750   27.8101 C   0  0  0  0  0  0  0  0  0  0  0  0
   -5.4233    0.8239   28.2180 C   0  0  0  0  0  0  0  0  0  0  0  0
   -6.0457   -0.4084   28.1509 C   0  0  0  0  0  0  0  0  0  0  0  0
   -7.9936    0.5817   27.3565 C   0  0  0  0  0  0  0  0  0  0  0  0
   -7.3459   -0.4872   27.7837 C   0  0  0  0  0  0  0  0  0  0  0  0
   -7.9752    6.7599   27.0981 C   0  0  0  0  0  0  0  0  0  0  0  0
   -8.1945    8.1639   26.1741 P   0  0  0  0  0  0  0  0  0  0  0  0
   -9.4828    8.3576   26.1576 O   0  0  0  0  0  0  0  0  0  0  0  0
   -7.4998    9.0929   27.2695 O   0  0  0  0  0  0  0  0  0  0  0  0
   -7.4943    7.9156   25.0192 O   0  0  0  0  0  0  0  0  0  0  0  0
   -4.0064    1.0160   28.6569 C   0  0  0  0  0  0  0  0  0  0  0  0
   -3.5404    0.2671   29.6532 N   0  0  0  0  0  0  0  0  0  0  0  0
   -2.6610   -0.7862   29.5019 C   0  0  2  0  0  0  0  0  0  0  0  0
   -2.2502   -1.4464   30.7169 C   0  0  0  0  0  0  0  0  0  0  0  0
   -2.1330   -0.9145   28.4466 F   0  0  0  0  0  0  0  0  0  0  0  0
   -3.2038   -2.2163   31.2953 C   0  0  0  0  0  0  0  0  0  0  0  0
   -2.9031   -2.8011   32.5243 C   0  0  0  0  0  0  0  0  0  0  0  0
   -2.5541   -2.2143   33.4216 C   0  0  0  0  0  0  0  0  0  0  0  0
   -1.5406   -1.0605   33.1085 C   0  0  0  0  0  0  0  0  0  0  0  0
   -1.9440   -0.2608   31.8671 C   0  0  0  0  0  0  0  0  0  0  0  0
  2  3  1  0
  4 13  1  0
 13 14  1  0
 14 15  1  0
 14 16  1  0
 14 17  2  0
  9 18  1  0
 18 19  1  0
 19 20  1  0
 20 22  1  1
 20 21  1  0
  3  8  2  0
  8  9  1  0
  9 10  2  0
 10 12  1  0
 12 11  2  0
 11  3  1  0
  1  2  2  0
  2  7  1  0
  7  6  2  0
  6  5  1  0
  5  4  2  0
  4  1  1  0
 21 23  2  0
 23 24  1  0
 24 25  2  0
 25 26  1  0
 26 27  2  0
 27 21  1  0
M  END
$$$$
