No_5031-complexes_sdf/6BKW-FPZ/2024-09-17-14-21-01/
     RDKit          3D

 18 20  0  0  0  0  0  0  0  0999 V2000
   -7.7129    4.2099   27.0854 C   0  0  0  0  0  0  0  0  0  0  0  0
   -7.7814    5.1722   27.8972 C   0  0  0  0  0  0  0  0  0  0  0  0
   -8.8998    3.8713   26.3707 C   0  0  0  0  0  0  0  0  0  0  0  0
   -9.9938    4.6774   26.5446 C   0  0  0  0  0  0  0  0  0  0  0  0
   -8.7789    6.1536   27.9256 C   0  0  0  0  0  0  0  0  0  0  0  0
   -9.9428    5.8398   27.2296 C   0  0  0  0  0  0  0  0  0  0  0  0
   -8.7380    2.6148   25.5921 C   0  0  0  0  0  0  0  0  0  0  0  0
   -9.5768    2.5154   24.5324 C   0  0  0  0  0  0  0  0  0  0  0  0
   -9.5894    1.3338   23.7411 C   0  0  0  0  0  0  0  0  0  0  0  0
  -10.3404    1.2643   22.5358 C   0  0  0  0  0  0  0  0  0  0  0  0
  -11.1453    2.3860   22.2054 C   0  0  0  0  0  0  0  0  0  0  0  0
  -11.1356    3.5090   22.9441 C   0  0  0  0  0  0  0  0  0  0  0  0
  -10.3223    3.6142   24.0971 C   0  0  0  0  0  0  0  0  0  0  0  0
  -10.8490    4.5429   25.3363 N   0  0  0  0  0  0  0  0  0  0  0  0
   -6.7066    5.5682   28.6809 F   0  0  0  0  0  0  0  0  0  0  0  0
   -8.6865    0.2163   24.0024 C   0  0  0  0  0  0  0  0  0  0  0  0
   -9.0023   -0.8441   24.0006 Cl  0  0  0  0  0  0  0  0  0  0  0  0
   -7.3999    0.7260   24.0483 O   0  0  0  0  0  0  0  0  0  0  0  0
  2 15  1  0
  9 16  1  0
 16 17  1  0
 16 18  2  0
  4 14  2  0
 14 13  1  0
  8  7  1  0
  7  3  2  0
  8  9  2  0
  9 10  1  0
 10 11  2  0
 11 12  1  0
 12 13  2  0
 13  8  1  0
  1  2  2  0
  2  5  1  0
  5  6  2  0
  6  4  1  0
  4  3  1  0
  3  1  1  0
M  END
$$$$
