No_5759-complexes_sdf/6BKW-FPZ/2024-09-17-14-21-01/
     RDKit          3D

 18 20  0  0  0  0  0  0  0  0999 V2000
   -7.9040    3.9820   27.1177 C   0  0  0  0  0  0  0  0  0  0  0  0
   -9.0711    4.3164   27.0630 C   0  0  0  0  0  0  0  0  0  0  0  0
   -9.5182    5.5541   27.5777 C   0  0  0  0  0  0  0  0  0  0  0  0
   -6.9424    4.7983   27.8424 C   0  0  0  0  0  0  0  0  0  0  0  0
   -7.3526    5.9739   28.3909 C   0  0  0  0  0  0  0  0  0  0  0  0
   -8.6479    6.3742   28.2169 C   0  0  0  0  0  0  0  0  0  0  0  0
  -10.0793    3.4689   26.3368 C   0  0  0  0  0  0  0  0  0  0  0  0
   -9.6567    2.5965   25.4484 C   0  0  0  0  0  0  0  0  0  0  0  0
  -10.3116    1.9106   24.6395 C   0  0  0  0  0  0  0  0  0  0  0  0
  -11.7204    2.1751   24.5122 C   0  0  0  0  0  0  0  0  0  0  0  0
  -12.2208    3.1551   25.3593 C   0  0  0  0  0  0  0  0  0  0  0  0
  -11.4263    3.9071   26.2187 C   0  0  0  0  0  0  0  0  0  0  0  0
   -9.5569    0.9329   23.7805 C   0  0  0  0  0  0  0  0  0  0  0  0
   -9.6274    1.0508   22.5259 N   0  0  0  0  0  0  0  0  0  0  0  0
   -8.7598   -0.0575   24.3124 C   0  0  0  0  0  0  0  0  0  0  0  0
   -8.0659   -0.8981   23.4750 C   0  0  0  0  0  0  0  0  0  0  0  0
   -8.9679    0.2580   21.6062 C   0  0  0  0  0  0  0  0  0  0  0  0
   -8.1667   -0.7296   22.1007 C   0  0  0  0  0  0  0  0  0  0  0  0
  2  7  1  0
  9 13  1  0
  1  2  2  0
  2  3  1  0
  3  6  2  0
  6  5  1  0
  5  4  2  0
  4  1  1  0
  7  8  2  0
  8  9  1  0
  9 10  2  0
 10 11  1  0
 11 12  2  0
 12  7  1  0
 13 14  2  0
 14 17  1  0
 17 18  2  0
 18 16  1  0
 16 15  2  0
 15 13  1  0
M  END
$$$$
