No_5779-complexes_sdf/6BKW-FPZ/2024-09-17-14-21-01/
     RDKit          3D

 11 11  0  0  0  0  0  0  0  0999 V2000
   -7.9040    3.9820   27.1177 C   0  0  0  0  0  0  0  0  0  0  0  0
   -7.8663    4.8694   27.9238 C   0  0  0  0  0  0  0  0  0  0  0  0
   -7.4547    2.7080   27.4594 C   0  0  0  0  0  0  0  0  0  0  0  0
   -7.9337    1.5946   26.8372 C   0  0  0  0  0  0  0  0  0  0  0  0
   -8.9032    1.7881   25.8510 C   0  0  0  0  0  0  0  0  0  0  0  0
   -9.3787    2.9871   25.5530 C   0  0  0  0  0  0  0  0  0  0  0  0
   -8.9781    4.0300   26.2200 C   0  0  0  0  0  0  0  0  0  0  0  0
   -7.9493    6.0343   27.8951 N   0  0  0  0  0  0  0  0  0  0  0  0
   -8.6841    6.6919   26.9720 C   0  0  0  0  0  0  0  0  0  0  0  0
   -9.3374    5.4439   25.9882 C   0  0  0  0  0  0  0  0  0  0  0  0
   -8.9564    7.8539   26.7961 N   0  0  0  0  0  0  0  0  0  0  0  0
  1  2  1  0
  2  8  1  0
  8  9  2  3
  7 10  1  0
  9 11  1  0
  1  3  2  0
  3  4  1  0
  4  5  2  0
  5  6  1  0
  6  7  2  0
  7  1  1  0
M  END
$$$$
