No_5138-complexes_sdf/6BKW-FPZ/2024-09-17-14-21-01/
     RDKit          3D

 32 36  0  0  0  0  0  0  0  0999 V2000
   -7.2496    3.8871   27.4508 C   0  0  0  0  0  0  0  0  0  0  0  0
   -7.9379    4.9063   27.8518 C   0  0  0  0  0  0  0  0  0  0  0  0
   -9.3376    4.8647   27.7795 C   0  0  0  0  0  0  0  0  0  0  0  0
   -7.8544    2.6294   27.0414 C   0  0  0  0  0  0  0  0  0  0  0  0
   -9.2665    2.6175   27.0340 C   0  0  0  0  0  0  0  0  0  0  0  0
   -9.9836    3.7042   27.4150 C   0  0  0  0  0  0  0  0  0  0  0  0
   -9.9053    1.3367   26.6546 C   0  0  0  0  0  0  0  0  0  0  0  0
  -10.5453    0.7121   27.6210 C   0  0  0  0  0  0  0  0  0  0  0  0
   -8.9693    0.4942   25.9090 C   0  0  0  0  0  0  0  0  0  0  0  0
   -9.5097   -0.6657   25.4937 C   0  0  0  0  0  0  0  0  0  0  0  0
  -11.4782    1.4811   28.4328 C   0  0  0  0  0  0  0  0  0  0  0  0
  -10.7262   -0.7073   27.7273 C   0  0  0  0  0  0  0  0  0  0  0  0
  -10.3393   -1.3920   26.4691 C   0  0  0  0  0  0  0  0  0  0  0  0
   -7.3334    6.0883   28.1411 O   0  0  0  0  0  0  0  0  0  0  0  0
  -12.1721    2.6318   28.1197 C   0  0  2  0  0  0  0  0  0  0  0  0
  -11.1964    3.8154   28.1348 C   0  0  0  0  0  0  0  0  0  0  0  0
  -13.4415    2.9263   28.8451 C   0  0  0  0  0  0  0  0  0  0  0  0
  -13.5953    2.4366   29.9807 C   0  0  0  0  0  0  0  0  0  0  0  0
  -14.7390    2.8319   30.7893 C   0  0  0  0  0  0  0  0  0  0  0  0
  -15.6468    3.6662   30.2472 C   0  0  0  0  0  0  0  0  0  0  0  0
  -14.3429    3.8893   28.3690 C   0  0  0  0  0  0  0  0  0  0  0  0
  -15.4610    4.2657   29.0229 C   0  0  0  0  0  0  0  0  0  0  0  0
  -12.6164    2.5163   26.5344 C   0  0  0  0  0  0  0  0  0  0  0  0
  -12.7764    3.5772   25.8004 C   0  0  0  0  0  0  0  0  0  0  0  0
  -13.0648    3.4898   24.4416 C   0  0  2  0  0  0  0  0  0  0  0  0
  -13.0947    4.6793   23.7470 C   0  0  0  0  0  0  0  0  0  0  0  0
  -14.3441    2.7787   24.0052 C   0  0  0  0  0  0  0  0  0  0  0  0
  -14.5637    2.5215   22.9568 N   0  0  0  0  0  0  0  0  0  0  0  0
  -14.7245    3.6812   22.0507 C   0  0  0  0  0  0  0  0  0  0  0  0
  -13.4619    4.5784   22.2176 C   0  0  0  0  0  0  0  0  0  0  0  0
  -14.8774    1.3233   22.2842 C   0  0  0  0  0  0  0  0  0  0  0  0
  -15.2685    0.3910   22.6112 C   0  0  0  0  0  0  0  0  0  0  0  0
  5  7  1  0
  8 11  1  0
  2 14  1  0
 11 15  1  0
  6 16  1  0
 15 16  1  0
 15 17  1  1
 15 23  1  0
 23 24  2  3
 24 25  1  0
 25 26  1  1
 25 27  1  0
 27 28  1  0
 28 29  1  0
 26 30  1  0
 29 30  1  0
 28 31  1  0
 31 32  2  0
 17 18  2  0
 18 19  1  0
 19 20  2  0
 20 22  1  0
 22 21  2  0
 21 17  1  0
  1  2  2  0
  2  3  1  0
  3  6  2  0
  6  5  1  0
  5  4  2  0
  4  1  1  0
  7  8  2  0
  8 12  1  0
 12 13  2  0
 13 10  1  0
 10  9  2  0
  9  7  1  0
M  END
$$$$
