No_5333-complexes_sdf/6BKW-FPZ/2024-09-17-14-21-01/
     RDKit          3D

 27 29  0  0  0  0  0  0  0  0999 V2000
   -7.7129    4.2099   27.0854 C   0  0  0  0  0  0  0  0  0  0  0  0
   -8.2112    3.0637   26.9225 C   0  0  0  0  0  0  0  0  0  0  0  0
   -9.4446    2.8304   26.1868 C   0  0  0  0  0  0  0  0  0  0  0  0
   -8.4697    5.3956   26.7238 C   0  0  0  0  0  0  0  0  0  0  0  0
   -9.6172    5.2111   25.9513 C   0  0  0  0  0  0  0  0  0  0  0  0
  -10.2195    6.3312   25.4491 C   0  0  0  0  0  0  0  0  0  0  0  0
  -10.0675    3.9424   25.6430 C   0  0  0  0  0  0  0  0  0  0  0  0
   -7.4615    1.8261   27.3983 C   0  0  0  0  0  0  0  0  0  0  0  0
   -6.4437    2.1171   28.1111 F   0  0  0  0  0  0  0  0  0  0  0  0
   -7.8400    0.5468   27.1544 C   0  0  0  0  0  0  0  0  0  0  0  0
   -8.9869    0.1879   26.9036 C   0  0  0  0  0  0  0  0  0  0  0  0
   -9.8464    1.3135   26.1455 C   0  0  0  0  0  0  0  0  0  0  0  0
  -11.1782    1.0716   25.7716 C   0  0  0  0  0  0  0  0  0  0  0  0
  -11.4180    0.0267   25.3237 C   0  0  0  0  0  0  0  0  0  0  0  0
  -12.7757   -0.3546   24.8365 C   0  0  0  0  0  0  0  0  0  0  0  0
  -13.6979    0.6645   24.9228 C   0  0  0  0  0  0  0  0  0  0  0  0
  -13.4228    1.8848   25.4490 C   0  0  0  0  0  0  0  0  0  0  0  0
  -12.1615    2.1628   25.9011 C   0  0  0  0  0  0  0  0  0  0  0  0
  -14.4721    2.9384   25.5243 C   0  0  0  0  0  0  0  0  0  0  0  0
  -14.6237    3.4606   26.7204 C   0  0  0  0  0  0  0  0  0  0  0  0
  -15.7425    2.5175   24.8512 C   0  0  0  0  0  0  0  0  0  0  0  0
  -13.8927    4.1024   24.5313 C   0  0  0  0  0  0  0  0  0  0  0  0
  -14.8230    2.8955   27.8252 C   0  0  0  0  0  0  0  0  0  0  0  0
  -14.6366    2.9660   28.9364 C   0  0  0  0  0  0  0  0  0  0  0  0
  -14.8667    2.0468   30.0562 C   0  0  0  0  0  0  0  0  0  0  0  0
  -15.3727    0.8474   29.6354 C   0  0  0  0  0  0  0  0  0  0  0  0
  -15.5728    0.5852   28.3449 C   0  0  0  0  0  0  0  0  0  0  0  0
  5  6  1  0
  8  9  1  0
 12 13  1  0
 17 19  1  0
 19 20  1  0
 19 21  1  0
 19 22  1  0
 20 23  2  3
 23 24  1  0
 24 25  2  3
 25 26  1  0
 26 27  2  0
 13 14  2  0
 14 15  1  0
 15 16  2  0
 16 17  1  0
 17 18  2  0
 18 13  1  0
  1  2  2  0
  3  7  2  0
  7  5  1  0
  5  4  2  0
  4  1  1  0
  2  3  1  0
  3 12  1  0
 12 11  2  0
 11 10  1  0
 10  8  2  0
  8  2  1  0
M  END
$$$$
