No_5158-complexes_sdf/6BKW-FPZ/2024-09-17-14-21-01/
     RDKit          3D

 14 15  0  0  0  0  0  0  0  0999 V2000
   -7.9040    3.9820   27.1177 C   0  0  2  0  0  0  0  0  0  0  0  0
   -7.8663    4.8694   27.9238 C   0  0  0  0  0  0  0  0  0  0  0  0
   -9.0491    3.8523   26.2542 C   0  0  1  0  0  0  0  0  0  0  0  0
   -9.7161    4.8785   25.9890 C   0  0  0  0  0  0  0  0  0  0  0  0
   -8.4350    6.1486   27.6826 C   0  0  0  0  0  0  0  0  0  0  0  0
   -9.6240    6.0947   26.8541 C   0  0  0  0  0  0  0  0  0  0  0  0
   -7.1296    2.6753   27.3894 C   0  0  0  0  0  0  0  0  0  0  0  0
   -5.9044    2.6935   28.0295 C   0  0  0  0  0  0  0  0  0  0  0  0
   -5.1227    1.5187   28.1194 C   0  0  0  0  0  0  0  0  0  0  0  0
   -5.6483    0.3160   27.7212 C   0  0  0  0  0  0  0  0  0  0  0  0
   -7.7420    1.4458   27.0027 C   0  0  0  0  0  0  0  0  0  0  0  0
   -6.9900    0.2772   27.1989 C   0  0  0  0  0  0  0  0  0  0  0  0
   -9.4351    2.6901   25.4411 C   0  0  0  0  0  0  0  0  0  0  0  0
   -8.7331    1.3997   25.8660 C   0  0  0  0  0  0  0  0  0  0  0  0
  1  2  1  0
  1  3  1  0
  3  4  1  0
  2  5  1  0
  4  6  1  0
  5  6  1  0
  1  7  1  1
  3 13  1  6
 13 14  1  0
  7  8  2  0
  8  9  1  0
  9 10  2  0
 10 12  1  0
 12 11  2  0
 11  7  1  0
M  END
$$$$
