No_5091-complexes_sdf/6BKW-FPZ/2024-09-17-14-21-01/
     RDKit          3D

 23 24  0  0  0  0  0  0  0  0999 V2000
   -7.7129    4.2099   27.0854 C   0  0  0  0  0  0  0  0  0  0  0  0
   -8.2112    3.0637   26.9225 C   0  0  0  0  0  0  0  0  0  0  0  0
   -8.5108    5.3904   26.9436 C   0  0  0  0  0  0  0  0  0  0  0  0
   -9.7256    5.1955   26.3518 C   0  0  0  0  0  0  0  0  0  0  0  0
   -7.4704    1.8386   27.3272 C   0  0  0  0  0  0  0  0  0  0  0  0
   -9.4948    2.8714   26.4765 C   0  0  0  0  0  0  0  0  0  0  0  0
  -10.2383    3.9753   26.1836 C   0  0  0  0  0  0  0  0  0  0  0  0
   -6.1035    2.0086   27.7264 C   0  0  0  0  0  0  0  0  0  0  0  0
   -5.3334    0.8548   28.1175 C   0  0  0  0  0  0  0  0  0  0  0  0
   -5.9171   -0.3871   28.0189 C   0  0  0  0  0  0  0  0  0  0  0  0
   -7.8650    0.5250   27.3006 C   0  0  0  0  0  0  0  0  0  0  0  0
   -7.1966   -0.5109   27.7054 C   0  0  0  0  0  0  0  0  0  0  0  0
   -7.9397    6.7433   27.1476 C   0  0  0  0  0  0  0  0  0  0  0  0
   -8.6425    7.8347   26.8126 N   0  0  0  0  0  0  0  0  0  0  0  0
   -3.7007    1.1515   28.5974 Cl  0  0  0  0  0  0  0  0  0  0  0  0
   -7.0143    6.9334   28.1303 N   0  0  0  0  0  0  0  0  0  0  0  0
   -7.8267   -1.8393   27.6649 C   0  0  0  0  0  0  0  0  0  0  0  0
   -9.0795   -1.9152   27.8045 C   0  0  0  0  0  0  0  0  0  0  0  0
   -9.7671   -3.1460   27.9327 C   0  0  0  0  0  0  0  0  0  0  0  0
   -9.0038   -4.2687   27.8778 C   0  0  0  0  0  0  0  0  0  0  0  0
   -7.1315   -3.0719   27.7491 C   0  0  0  0  0  0  0  0  0  0  0  0
   -7.7012   -4.2208   27.8034 C   0  0  0  0  0  0  0  0  0  0  0  0
   -6.8751   -5.4524   27.7843 C   0  0  0  0  0  0  0  0  0  0  0  0
  2  5  1  0
  3 13  1  0
 13 14  2  0
  9 15  1  0
 13 16  1  0
 12 17  1  0
 17 18  2  3
 18 19  1  0
 19 20  2  0
 17 21  1  0
 21 22  2  3
 22 23  1  0
  1  2  2  0
  2  6  1  0
  6  7  2  0
  7  4  1  0
  4  3  2  0
  3  1  1  0
  5  8  2  0
  8  9  1  0
  9 10  2  0
 10 12  1  0
 12 11  2  0
 11  5  1  0
M  END
$$$$
