No_5921-complexes_sdf/6BKW-FPZ/2024-09-17-14-21-01/
     RDKit          3D

 13 14  0  0  0  0  0  0  0  0999 V2000
   -7.9040    3.9820   27.1177 C   0  0  0  0  0  0  0  0  0  0  0  0
   -7.8663    4.8694   27.9238 C   0  0  0  0  0  0  0  0  0  0  0  0
   -7.4547    2.7080   27.4594 C   0  0  0  0  0  0  0  0  0  0  0  0
   -8.7044    6.0412   27.8492 C   0  0  0  0  0  0  0  0  0  0  0  0
   -7.9501    1.5743   26.8848 C   0  0  0  0  0  0  0  0  0  0  0  0
   -7.5077    0.3045   27.2899 C   0  0  0  0  0  0  0  0  0  0  0  0
   -8.3304   -0.7842   27.0095 C   0  0  0  0  0  0  0  0  0  0  0  0
   -9.3700   -0.7176   27.0922 C   0  0  0  0  0  0  0  0  0  0  0  0
   -9.3096    1.5471   26.4401 C   0  0  0  0  0  0  0  0  0  0  0  0
  -10.0820    0.4953   26.5426 C   0  0  0  0  0  0  0  0  0  0  0  0
   -8.7503    4.1352   25.9827 C   0  0  0  0  0  0  0  0  0  0  0  0
   -9.4224    5.3376   25.6719 C   0  0  0  0  0  0  0  0  0  0  0  0
   -9.2935    6.3854   26.6419 C   0  0  0  0  0  0  0  0  0  0  0  0
  1  3  1  0
  3  5  1  0
  5  6  2  0
  6  7  1  0
  7  8  2  0
  8 10  1  0
 10  9  2  0
  9  5  1  0
  1  2  2  0
  2  4  1  0
  4 13  2  0
 13 12  1  0
 12 11  2  0
 11  1  1  0
M  END
$$$$
