No_583-complexes_sdf/6BKW-FPZ/2024-09-17-14-21-01/
     RDKit          3D

 27 30  0  0  0  0  0  0  0  0999 V2000
   -7.7129    4.2099   27.0854 C   0  0  0  0  0  0  0  0  0  0  0  0
   -7.7814    5.1722   27.8972 C   0  0  0  0  0  0  0  0  0  0  0  0
   -8.8998    3.8713   26.3707 C   0  0  0  0  0  0  0  0  0  0  0  0
   -8.9563    2.6796   25.5490 C   0  0  0  0  0  0  0  0  0  0  0  0
   -8.8131    6.1334   27.9344 C   0  0  0  0  0  0  0  0  0  0  0  0
   -9.9804    5.8121   27.1929 C   0  0  0  0  0  0  0  0  0  0  0  0
   -9.9861    4.6836   26.4532 C   0  0  0  0  0  0  0  0  0  0  0  0
   -8.3357    1.4961   26.0703 C   0  0  0  0  0  0  0  0  0  0  0  0
   -8.2040    0.3562   25.3419 C   0  0  0  0  0  0  0  0  0  0  0  0
   -8.8256    0.3872   24.0713 C   0  0  0  0  0  0  0  0  0  0  0  0
   -9.4862    1.4967   23.5498 C   0  0  0  0  0  0  0  0  0  0  0  0
   -9.4639    2.6572   24.2913 C   0  0  0  0  0  0  0  0  0  0  0  0
  -10.0314    1.4967   22.2172 C   0  0  0  0  0  0  0  0  0  0  0  0
  -10.1834    0.3763   21.4963 C   0  0  0  0  0  0  0  0  0  0  0  0
  -10.8418    0.3736   20.2908 C   0  0  0  0  0  0  0  0  0  0  0  0
  -11.3965    1.5678   19.8091 C   0  0  0  0  0  0  0  0  0  0  0  0
  -10.6122    2.6994   21.6652 C   0  0  0  0  0  0  0  0  0  0  0  0
  -11.2360    2.7227   20.5264 C   0  0  0  0  0  0  0  0  0  0  0  0
   -6.6805    5.5755   28.6489 O   0  0  0  0  0  0  0  0  0  0  0  0
   -7.5412   -0.7889   25.8188 C   0  0  2  0  0  0  0  0  0  0  0  0
   -7.6940   -1.1635   27.0675 C   0  0  0  0  0  0  0  0  0  0  0  0
   -6.9816   -2.2488   27.7385 C   0  0  0  0  0  0  0  0  0  0  0  0
   -7.1000   -2.3350   29.1198 C   0  0  0  0  0  0  0  0  0  0  0  0
   -8.2277   -1.9200   29.7511 C   0  0  0  0  0  0  0  0  0  0  0  0
   -9.1856   -1.1468   29.0049 C   0  0  0  0  0  0  0  0  0  0  0  0
   -8.9019   -0.6902   27.7442 C   0  0  0  0  0  0  0  0  0  0  0  0
   -5.9833   -0.5409   25.6003 C   0  0  0  0  0  0  0  0  0  0  0  0
  3  4  1  0
 11 13  1  0
  2 19  1  0
  9 20  1  0
 20 27  1  1
 20 21  1  0
  4  8  2  0
  8  9  1  0
  9 10  2  0
 10 11  1  0
 11 12  2  0
 12  4  1  0
 13 14  2  0
 14 15  1  0
 15 16  2  0
 16 18  1  0
 18 17  2  0
 17 13  1  0
  1  2  2  0
  2  5  1  0
  5  6  2  0
  6  7  1  0
  7  3  2  0
  3  1  1  0
 21 22  2  0
 22 23  1  0
 23 24  2  0
 24 25  1  0
 25 26  2  0
 26 21  1  0
M  END
$$$$
