No_544-complexes_sdf/6BKW-FPZ/2024-09-17-14-21-01/
     RDKit          3D

 14 14  0  0  0  0  0  0  0  0999 V2000
   -7.2496    3.8871   27.4508 C   0  0  0  0  0  0  0  0  0  0  0  0
   -8.5096    4.0291   27.2770 C   0  0  0  0  0  0  0  0  0  0  0  0
   -9.3451    2.8786   26.9046 C   0  0  0  0  0  0  0  0  0  0  0  0
   -6.6893    2.5856   27.4759 N   0  0  0  0  0  0  0  0  0  0  0  0
   -7.4012    1.5331   27.2231 C   0  0  0  0  0  0  0  0  0  0  0  0
   -6.8846    0.3276   27.2878 N   0  0  0  0  0  0  0  0  0  0  0  0
   -8.7632    1.6585   26.9766 C   0  0  0  0  0  0  0  0  0  0  0  0
   -9.0900    5.4069   27.2259 C   0  0  0  0  0  0  0  0  0  0  0  0
   -8.1897    6.4738   27.4081 C   0  0  0  0  0  0  0  0  0  0  0  0
   -5.5221    0.2004   27.7209 C   0  0  0  0  0  0  0  0  0  0  0  0
   -4.8915   -0.5103   28.2110 C   0  0  0  0  0  0  0  0  0  0  0  0
   -3.9777   -0.6159   28.8651 C   0  0  0  0  0  0  0  0  0  0  0  0
   -3.0277    0.5295   28.8253 C   0  0  0  0  0  0  0  0  0  0  0  0
   -4.8931    1.4632   27.8496 F   0  0  0  0  0  0  0  0  0  0  0  0
  5  6  1  0
  2  8  1  0
  8  9  1  0
  6 10  1  0
 10 11  2  3
 11 12  1  0
 12 13  2  0
 10 14  1  0
  1  2  2  0
  2  3  1  0
  3  7  2  0
  7  5  1  0
  5  4  2  0
  4  1  1  0
M  END
$$$$
