No_5473-complexes_sdf/6BKW-FPZ/2024-09-17-14-21-01/
     RDKit          3D

 17 18  0  0  0  0  0  0  0  0999 V2000
   -7.7129    4.2099   27.0854 C   0  0  0  0  0  0  0  0  0  0  0  0
   -7.7814    5.1722   27.8972 C   0  0  0  0  0  0  0  0  0  0  0  0
   -7.3155    2.9700   27.6145 C   0  0  0  0  0  0  0  0  0  0  0  0
   -7.9010    1.7962   27.2023 C   0  0  0  0  0  0  0  0  0  0  0  0
   -8.9578    1.9047   26.2707 C   0  0  0  0  0  0  0  0  0  0  0  0
   -9.3989    3.1000   25.8096 C   0  0  0  0  0  0  0  0  0  0  0  0
   -8.8948    4.1615   26.3218 C   0  0  0  0  0  0  0  0  0  0  0  0
   -8.2271    6.4668   27.5438 N   0  0  0  0  0  0  0  0  0  0  0  0
   -9.0798    6.6377   26.5319 C   0  0  0  0  0  0  0  0  0  0  0  0
   -9.5047    5.4887   25.9469 C   0  0  0  0  0  0  0  0  0  0  0  0
   -7.2763    0.5058   27.5386 C   0  0  2  0  0  0  0  0  0  0  0  0
   -5.6619    0.3757   28.2639 Br  0  0  0  0  0  0  0  0  0  0  0  0
   -7.8405   -0.7028   26.9647 C   0  0  0  0  0  0  0  0  0  0  0  0
   -8.1248   -1.5980   27.6010 C   0  0  0  0  0  0  0  0  0  0  0  0
   -8.7981   -2.7944   27.1165 C   0  0  0  0  0  0  0  0  0  0  0  0
   -9.1434   -2.7334   25.8192 C   0  0  0  0  0  0  0  0  0  0  0  0
   -8.7922   -1.6726   25.0201 C   0  0  0  0  0  0  0  0  0  0  0  0
  4 11  1  0
 11 12  1  6
 11 13  1  0
 13 14  2  3
 14 15  1  0
 15 16  2  3
 16 17  1  0
  1  2  2  0
  2  8  1  0
  8  9  2  0
  9 10  1  0
 10  7  2  0
  1  3  1  0
  3  4  2  0
  4  5  1  0
  5  6  2  0
  6  7  1  0
  7  1  1  0
M  END
$$$$
