No_5524-complexes_sdf/6BKW-FPZ/2024-09-17-14-21-01/
     RDKit          3D

 22 24  0  0  0  0  0  0  0  0999 V2000
   -7.9040    3.9820   27.1177 C   0  0  0  0  0  0  0  0  0  0  0  0
   -8.2057    2.8231   26.8733 C   0  0  0  0  0  0  0  0  0  0  0  0
   -8.7695    5.0740   26.7916 C   0  0  0  0  0  0  0  0  0  0  0  0
   -9.9618    4.7598   26.1630 C   0  0  0  0  0  0  0  0  0  0  0  0
   -9.4200    2.4524   26.2849 C   0  0  0  0  0  0  0  0  0  0  0  0
  -10.2590    3.4815   25.9250 C   0  0  0  0  0  0  0  0  0  0  0  0
   -8.3840    6.4693   27.0829 C   0  0  0  0  0  0  0  0  0  0  0  0
   -8.7433    7.4015   26.4522 O   0  0  0  0  0  0  0  0  0  0  0  0
   -7.1751    6.5176   27.8009 O   0  0  0  0  0  0  0  0  0  0  0  0
   -7.2869    1.6616   27.2880 C   0  0  0  0  0  0  0  0  0  0  0  0
   -6.1014    1.9610   27.7894 N   0  0  0  0  0  0  0  0  0  0  0  0
   -5.2697    0.8842   28.1351 C   0  0  0  0  0  0  0  0  0  0  0  0
   -5.7875   -0.3444   27.9657 C   0  0  0  0  0  0  0  0  0  0  0  0
   -7.4236    0.2523   27.2790 C   0  0  0  0  0  0  0  0  0  0  0  0
   -4.0020    1.0593   28.6225 N   0  0  0  0  0  0  0  0  0  0  0  0
   -3.3145    0.0374   29.1670 C   0  0  0  0  0  0  0  0  0  0  0  0
   -3.7064   -1.1788   29.0315 C   0  0  0  0  0  0  0  0  0  0  0  0
   -5.2108   -1.3998   28.4220 C   0  0  0  0  0  0  0  0  0  0  0  0
   -3.0355   -2.3829   29.4927 C   0  0  0  0  0  0  0  0  0  0  0  0
   -3.5133   -3.4123   29.4037 F   0  0  0  0  0  0  0  0  0  0  0  0
   -1.8184   -2.4274   28.8202 F   0  0  0  0  0  0  0  0  0  0  0  0
   -2.6350   -2.1362   30.8075 F   0  0  0  0  0  0  0  0  0  0  0  0
  3  7  1  0
  7  8  2  0
  7  9  1  0
  2 10  1  0
 10 11  2  0
 11 12  1  0
 10 14  1  0
 13 14  1  0
 17 19  1  0
 19 20  1  0
 19 21  1  0
 19 22  1  0
  1  2  2  0
  2  5  1  0
  5  6  2  0
  6  4  1  0
  4  3  2  0
  3  1  1  0
 12 13  2  0
 13 18  1  0
 18 17  2  0
 17 16  1  0
 16 15  2  0
 15 12  1  0
M  END
$$$$
