No_5210-complexes_sdf/6BKW-FPZ/2024-09-17-14-21-01/
     RDKit          3D

 16 16  0  0  0  0  0  0  0  0999 V2000
   -7.7129    4.2099   27.0854 C   0  0  0  0  0  0  0  0  0  0  0  0
   -7.7814    5.1722   27.8972 C   0  0  0  0  0  0  0  0  0  0  0  0
   -8.8776    3.8408   26.3416 C   0  0  0  0  0  0  0  0  0  0  0  0
   -9.9844    4.6492   26.4743 C   0  0  0  0  0  0  0  0  0  0  0  0
   -8.8033    6.1375   27.8728 C   0  0  0  0  0  0  0  0  0  0  0  0
   -9.9554    5.8280   27.1737 C   0  0  0  0  0  0  0  0  0  0  0  0
   -8.8752    2.6155   25.5663 C   0  0  0  0  0  0  0  0  0  0  0  0
   -9.7013    1.7775   25.8074 N   0  0  0  0  0  0  0  0  0  0  0  0
   -9.7104    0.5907   25.3836 C   0  0  0  0  0  0  0  0  0  0  0  0
   -8.8829    0.2140   24.5272 C   0  0  0  0  0  0  0  0  0  0  0  0
  -10.6811   -0.4866   25.7896 C   0  0  0  0  0  0  0  0  0  0  0  0
   -8.8949   -0.2430   23.5012 C   0  0  0  0  0  0  0  0  0  0  0  0
  -10.1807   -0.6227   22.9408 C   0  0  0  0  0  0  0  0  0  0  0  0
  -10.1753   -1.1394   21.6557 C   0  0  0  0  0  0  0  0  0  0  0  0
   -8.9963   -1.2478   20.9230 C   0  0  0  0  0  0  0  0  0  0  0  0
   -7.7832   -0.9433   21.3909 C   0  0  0  0  0  0  0  0  0  0  0  0
  3  7  1  0
  7  8  1  0
  8  9  1  0
  9 10  1  0
  9 11  1  0
 10 12  3  0
 12 13  1  0
 13 14  2  3
 14 15  1  0
 15 16  2  0
  1  2  2  0
  2  5  1  0
  5  6  2  0
  6  4  1  0
  4  3  2  0
  3  1  1  0
M  END
$$$$
