No_5568-complexes_sdf/6BKW-FPZ/2024-09-17-14-21-01/
     RDKit          3D

 18 20  0  0  0  0  0  0  0  0999 V2000
   -7.2496    3.8871   27.4508 C   0  0  0  0  0  0  0  0  0  0  0  0
   -8.5096    4.0291   27.2770 C   0  0  0  0  0  0  0  0  0  0  0  0
   -9.3451    2.8786   26.9046 C   0  0  0  0  0  0  0  0  0  0  0  0
  -10.6709    3.0505   26.6789 C   0  0  0  0  0  0  0  0  0  0  0  0
   -6.5705    4.9572   27.9298 N   0  0  0  0  0  0  0  0  0  0  0  0
  -11.2351    4.2670   26.9658 C   0  0  0  0  0  0  0  0  0  0  0  0
   -9.3619    5.1636   27.5463 C   0  0  0  0  0  0  0  0  0  0  0  0
  -10.6029    5.3389   27.4495 C   0  0  0  0  0  0  0  0  0  0  0  0
   -6.6707    2.7039   27.5985 N   0  0  0  0  0  0  0  0  0  0  0  0
   -7.1046    1.5455   27.2541 C   0  0  0  0  0  0  0  0  0  0  0  0
   -8.6532    1.6056   26.8453 C   0  0  0  0  0  0  0  0  0  0  0  0
   -9.2465    0.4081   26.4627 C   0  0  0  0  0  0  0  0  0  0  0  0
   -8.7388   -0.6412   26.4870 C   0  0  0  0  0  0  0  0  0  0  0  0
   -7.2821   -0.7411   26.8704 C   0  0  0  0  0  0  0  0  0  0  0  0
   -6.5153    0.3547   27.2340 C   0  0  0  0  0  0  0  0  0  0  0  0
   -5.1581    0.2447   27.6706 C   0  0  0  0  0  0  0  0  0  0  0  0
   -4.7097    0.6807   28.7651 C   0  0  0  0  0  0  0  0  0  0  0  0
   -3.3033    0.5511   29.2156 C   0  0  0  0  0  0  0  0  0  0  0  0
  1  2  1  0
  1  5  2  0
  1  9  1  0
  9 10  1  0
  3 11  1  0
 15 16  1  0
 16 17  2  3
 17 18  1  0
  2  3  2  0
  3  4  1  0
  4  6  2  0
  6  8  1  0
  8  7  2  0
  7  2  1  0
 10 11  2  0
 11 12  1  0
 12 13  2  0
 13 14  1  0
 14 15  2  0
 15 10  1  0
M  END
$$$$
