No_5291-complexes_sdf/6BKW-FPZ/2024-09-17-14-21-01/
     RDKit          3D

 19 21  0  0  0  0  0  0  0  0999 V2000
   -7.9040    3.9820   27.1177 C   0  0  0  0  0  0  0  0  0  0  0  0
   -9.0711    4.3164   27.0630 C   0  0  0  0  0  0  0  0  0  0  0  0
   -9.5294    5.4517   27.7215 C   0  0  0  0  0  0  0  0  0  0  0  0
   -7.4336    2.7132   26.5681 C   0  0  0  0  0  0  0  0  0  0  0  0
   -8.3353    1.8569   26.0442 C   0  0  0  0  0  0  0  0  0  0  0  0
   -9.6477    2.2853   25.9146 C   0  0  0  0  0  0  0  0  0  0  0  0
  -10.0346    3.4497   26.4483 C   0  0  2  0  0  0  0  0  0  0  0  0
   -7.8750    0.5509   25.5918 C   0  0  0  0  0  0  0  0  0  0  0  0
   -6.9702    0.0164   26.1017 O   0  0  0  0  0  0  0  0  0  0  0  0
   -8.4198    0.1206   24.4519 O   0  0  0  0  0  0  0  0  0  0  0  0
   -6.9078    4.6967   27.8674 N   0  0  0  0  0  0  0  0  0  0  0  0
   -7.2488    5.8685   28.4567 C   0  0  0  0  0  0  0  0  0  0  0  0
   -8.5645    6.2500   28.3305 N   0  0  0  0  0  0  0  0  0  0  0  0
  -11.4150    3.8797   26.1609 C   0  0  0  0  0  0  0  0  0  0  0  0
  -12.2508    3.0421   26.6274 C   0  0  0  0  0  0  0  0  0  0  0  0
  -13.6012    3.4003   26.6020 C   0  0  0  0  0  0  0  0  0  0  0  0
  -13.9687    4.4955   25.8377 C   0  0  0  0  0  0  0  0  0  0  0  0
  -12.9856    5.2375   25.1346 C   0  0  0  0  0  0  0  0  0  0  0  0
  -11.6447    4.9198   25.3574 C   0  0  0  0  0  0  0  0  0  0  0  0
  1  4  1  0
  4  5  1  0
  5  6  1  0
  2  7  1  0
  6  7  1  0
  5  8  1  0
  8  9  2  0
  8 10  1  0
  7 14  1  6
 14 15  2  0
 15 16  1  0
 16 17  2  0
 17 18  1  0
 18 19  2  0
 19 14  1  0
  1  2  1  0
  2  3  2  0
  3 13  1  0
 13 12  2  0
 12 11  1  0
 11  1  2  0
M  END
$$$$
