No_5292-complexes_sdf/6BKW-FPZ/2024-09-17-14-21-01/
     RDKit          3D

 39 42  0  0  0  0  0  0  0  0999 V2000
   -7.7129    4.2099   27.0854 C   0  0  0  0  0  0  0  0  0  0  0  0
   -8.2112    3.0637   26.9225 C   0  0  0  0  0  0  0  0  0  0  0  0
   -8.4224    5.2106   27.8516 C   0  0  0  0  0  0  0  0  0  0  0  0
   -7.4917    1.9381   26.3986 C   0  0  0  0  0  0  0  0  0  0  0  0
   -9.7695    5.0306   28.1322 C   0  0  0  0  0  0  0  0  0  0  0  0
   -9.5975    2.7583   27.3362 C   0  0  0  0  0  0  0  0  0  0  0  0
  -10.3362    3.8114   27.9177 C   0  0  0  0  0  0  0  0  0  0  0  0
   -6.6311    1.2777   27.4357 C   0  0  0  0  0  0  0  0  0  0  0  0
   -6.0965    0.0321   27.2030 C   0  0  0  0  0  0  0  0  0  0  0  0
   -5.1666   -0.4606   28.1801 C   0  0  0  0  0  0  0  0  0  0  0  0
   -4.1759   -0.1575   28.3792 C   0  0  0  0  0  0  0  0  0  0  0  0
   -3.3822   -0.6039   29.5607 C   0  0  0  0  0  0  0  0  0  0  0  0
   -3.8077   -1.0796   30.3343 C   0  0  0  0  0  0  0  0  0  0  0  0
   -5.8791   -1.1548   29.3575 C   0  0  0  0  0  0  0  0  0  0  0  0
   -5.1755   -1.5208   30.4195 C   0  0  0  0  0  0  0  0  0  0  0  0
  -11.7090    3.5016   28.4162 C   0  0  0  0  0  0  0  0  0  0  0  0
  -11.9756    2.3113   29.0334 C   0  0  0  0  0  0  0  0  0  0  0  0
  -13.2583    2.0189   29.5160 C   0  0  0  0  0  0  0  0  0  0  0  0
  -13.5937    0.7819   29.8889 C   0  0  0  0  0  0  0  0  0  0  0  0
  -14.1452    3.1682   29.7025 C   0  0  0  0  0  0  0  0  0  0  0  0
  -13.8732    4.4115   29.1540 C   0  0  0  0  0  0  0  0  0  0  0  0
  -12.6214    4.6111   28.5219 C   0  0  0  0  0  0  0  0  0  0  0  0
   -3.3974    0.7225   27.3474 C   0  0  0  0  0  0  0  0  0  0  0  0
   -3.6418    1.7815   27.0149 O   0  0  0  0  0  0  0  0  0  0  0  0
   -2.2621    0.0995   26.8988 O   0  0  0  0  0  0  0  0  0  0  0  0
   -5.8261   -2.2168   31.5501 C   0  0  0  0  0  0  0  0  0  0  0  0
   -7.0402   -2.6891   31.4750 C   0  0  0  0  0  0  0  0  0  0  0  0
   -7.7190   -3.2400   32.6207 C   0  0  0  0  0  0  0  0  0  0  0  0
   -7.0656   -3.2250   33.8572 C   0  0  0  0  0  0  0  0  0  0  0  0
   -5.8126   -2.6604   33.9798 C   0  0  0  0  0  0  0  0  0  0  0  0
   -5.1891   -2.1045   32.8784 C   0  0  0  0  0  0  0  0  0  0  0  0
  -13.1469   -0.3291   29.1373 C   0  0  0  0  0  0  0  0  0  0  0  0
  -12.7641   -0.1880   27.9343 C   0  0  0  0  0  0  0  0  0  0  0  0
  -11.5457   -0.6528   27.6192 C   0  0  0  0  0  0  0  0  0  0  0  0
  -11.0111   -0.6394   26.2733 C   0  0  0  0  0  0  0  0  0  0  0  0
   -9.7889   -1.2127   25.9583 C   0  0  0  0  0  0  0  0  0  0  0  0
   -9.3455   -1.1790   24.6664 C   0  0  0  0  0  0  0  0  0  0  0  0
   -9.9983   -0.3959   23.7130 C   0  0  0  0  0  0  0  0  0  0  0  0
  -11.1686    0.2828   24.0740 C   0  0  0  0  0  0  0  0  0  0  0  0
  2  4  1  0
  4  8  1  0
  8  9  2  3
  9 10  1  0
  7 16  1  0
 11 23  1  0
 23 24  2  0
 23 25  1  0
 15 26  1  0
 19 32  1  0
 32 33  1  0
 33 34  2  3
 34 35  1  0
 35 36  2  3
 36 37  1  0
 37 38  2  3
 38 39  1  0
 19 18  1  0
 26 27  2  0
 27 28  1  0
 28 29  2  0
 29 30  1  0
 30 31  2  0
 31 26  1  0
 16 17  2  0
 17 18  1  0
 18 20  2  0
 20 21  1  0
 21 22  2  0
 22 16  1  0
  1  2  2  0
  2  6  1  0
  6  7  2  0
  7  5  1  0
  5  3  2  0
  3  1  1  0
 10 11  2  0
 11 12  1  0
 12 13  2  0
 13 15  1  0
 15 14  2  0
 14 10  1  0
M  END
$$$$
