No_5658-complexes_sdf/6BKW-FPZ/2024-09-17-14-21-01/
     RDKit          3D

 17 19  0  0  0  0  0  0  0  0999 V2000
   -7.7129    4.2099   27.0854 C   0  0  0  0  0  0  0  0  0  0  0  0
   -8.9133    4.4736   27.0998 C   0  0  2  0  0  0  0  0  0  0  0  0
   -9.7135    3.9633   26.0300 C   0  0  2  0  0  0  0  0  0  0  0  0
   -6.8655    4.8824   28.1822 C   0  0  0  0  0  0  0  0  0  0  0  0
   -9.2221    2.8459   25.3619 C   0  0  0  0  0  0  0  0  0  0  0  0
  -10.0341    2.3269   24.3143 C   0  0  0  0  0  0  0  0  0  0  0  0
  -10.9174    3.1230   23.6221 C   0  0  2  0  0  0  0  0  0  0  0  0
  -11.3105    4.3671   24.2251 C   0  0  0  0  0  0  0  0  0  0  0  0
  -10.6859    4.8226   25.3890 C   0  0  0  0  0  0  0  0  0  0  0  0
   -7.6967    5.7277   28.8473 N   0  0  0  0  0  0  0  0  0  0  0  0
   -9.1077    5.5381   28.0604 C   0  0  0  0  0  0  0  0  0  0  0  0
  -11.6262    2.6819   22.4450 C   0  0  0  0  0  0  0  0  0  0  0  0
  -11.8022    1.5720   22.2169 C   0  0  0  0  0  0  0  0  0  0  0  0
  -12.4850    1.1320   21.0704 C   0  0  0  0  0  0  0  0  0  0  0  0
  -12.8151    1.9753   20.3636 C   0  0  0  0  0  0  0  0  0  0  0  0
  -12.2153    3.4883   21.3336 C   0  0  0  0  0  0  0  0  0  0  0  0
   -8.3382    2.0219   25.8546 O   0  0  0  0  0  0  0  0  0  0  0  0
  2  1  1  6
  1  4  1  0
  3  5  1  0
  5  6  1  0
  7  8  1  0
  3  9  1  6
  8  9  1  0
  4 10  2  0
  2 11  1  0
 10 11  1  0
  7 12  1  1
 12 13  2  0
 13 14  1  0
 14 15  2  0
 12 16  1  0
 15 16  1  0
  5 17  2  0
  2  3  1  0
  7  6  1  0
M  END
$$$$
