No_5427-complexes_sdf/6BKW-FPZ/2024-09-17-14-21-01/
     RDKit          3D

 29 31  0  0  0  0  0  0  0  0999 V2000
   -7.2496    3.8871   27.4508 C   0  0  0  0  0  0  0  0  0  0  0  0
   -7.9379    4.9063   27.8518 C   0  0  0  0  0  0  0  0  0  0  0  0
   -9.3376    4.8647   27.7795 C   0  0  0  0  0  0  0  0  0  0  0  0
   -7.8544    2.6294   27.0414 C   0  0  0  0  0  0  0  0  0  0  0  0
   -9.2665    2.6175   27.0340 C   0  0  0  0  0  0  0  0  0  0  0  0
   -9.9836    3.7042   27.4150 C   0  0  0  0  0  0  0  0  0  0  0  0
   -7.0765    1.4847   26.7707 C   0  0  0  0  0  0  0  0  0  0  0  0
   -5.9850    1.2303   27.5412 N   0  0  0  0  0  0  0  0  0  0  0  0
   -5.2615    0.1209   27.5026 C   0  0  0  0  0  0  0  0  0  0  0  0
   -4.0857    0.1333   28.3448 C   0  0  0  0  0  0  0  0  0  0  0  0
   -3.8921   -0.8178   29.3733 C   0  0  0  0  0  0  0  0  0  0  0  0
   -3.2063   -0.4606   30.4234 C   0  0  0  0  0  0  0  0  0  0  0  0
   -2.9945   -1.4094   31.4502 C   0  0  0  0  0  0  0  0  0  0  0  0
   -3.5633   -2.6362   31.3649 C   0  0  0  0  0  0  0  0  0  0  0  0
   -4.3155   -2.9275   30.2589 C   0  0  0  0  0  0  0  0  0  0  0  0
   -4.4828   -2.0256   29.2593 C   0  0  0  0  0  0  0  0  0  0  0  0
   -7.4683    0.6388   26.0055 O   0  0  0  0  0  0  0  0  0  0  0  0
  -11.4649    3.6502   27.4115 C   0  0  1  0  0  0  0  0  0  0  0  0
  -12.1144    3.7401   28.7354 C   0  0  0  0  0  0  0  0  0  0  0  0
  -13.5162    3.8650   28.8569 C   0  0  0  0  0  0  0  0  0  0  0  0
  -14.1305    3.9736   30.0916 C   0  0  0  0  0  0  0  0  0  0  0  0
  -13.4071    3.5360   31.2305 C   0  0  0  0  0  0  0  0  0  0  0  0
  -12.0452    3.2308   31.0520 C   0  0  0  0  0  0  0  0  0  0  0  0
  -11.4240    3.2846   29.9091 C   0  0  0  0  0  0  0  0  0  0  0  0
   -7.2525    6.1686   28.2584 C   0  0  0  0  0  0  0  0  0  0  0  0
  -12.1585    3.8250   26.2455 C   0  0  0  0  0  0  0  0  0  0  0  0
  -11.6466    4.3838   25.2016 C   0  0  0  0  0  0  0  0  0  0  0  0
  -12.1747    4.3240   23.8695 C   0  0  0  0  0  0  0  0  0  0  0  0
  -13.5388    4.0300   23.8222 C   0  0  0  0  0  0  0  0  0  0  0  0
  4  7  1  0
  7  8  1  0
  8  9  1  0
  9 10  1  0
 10 11  1  0
  7 17  2  0
  6 18  1  0
 18 19  1  0
  2 25  1  0
 18 26  1  6
 26 27  1  0
 27 28  2  3
 28 29  1  0
 11 12  2  0
 12 13  1  0
 13 14  2  0
 14 15  1  0
 15 16  2  0
 16 11  1  0
  1  2  2  0
  2  3  1  0
  3  6  2  0
  6  5  1  0
  5  4  2  0
  4  1  1  0
 19 20  2  0
 20 21  1  0
 21 22  2  0
 22 23  1  0
 23 24  2  0
 24 19  1  0
M  END
$$$$
