No_5983-complexes_sdf/6BKW-FPZ/2024-09-17-14-21-01/
     RDKit          3D

 23 23  0  0  0  0  0  0  0  0999 V2000
   -7.7129    4.2099   27.0854 C   0  0  0  0  0  0  0  0  0  0  0  0
   -8.2112    3.0637   26.9225 C   0  0  0  0  0  0  0  0  0  0  0  0
   -9.4446    2.8304   26.1868 C   0  0  0  0  0  0  0  0  0  0  0  0
   -6.6388    4.5347   28.1122 C   0  0  0  0  0  0  0  0  0  0  0  0
   -9.9056    3.6854   25.8005 C   0  0  0  0  0  0  0  0  0  0  0  0
   -9.4745    5.1149   25.8420 C   0  0  0  0  0  0  0  0  0  0  0  0
   -8.4483    5.3628   26.6017 C   0  0  0  0  0  0  0  0  0  0  0  0
   -6.6874    5.6726   28.6763 N   0  0  0  0  0  0  0  0  0  0  0  0
   -5.6403    3.7803   27.9488 O   0  0  0  0  0  0  0  0  0  0  0  0
  -11.1739    3.5833   24.8068 C   0  0  0  0  0  0  0  0  0  0  0  0
  -11.2041    3.9941   23.3390 Cl  0  0  0  0  0  0  0  0  0  0  0  0
  -12.3660    3.0298   25.4159 C   0  0  0  0  0  0  0  0  0  0  0  0
  -12.6605    2.8728   26.5321 C   0  0  0  0  0  0  0  0  0  0  0  0
  -13.3883    2.7557   27.3993 C   0  0  0  0  0  0  0  0  0  0  0  0
  -13.7245    2.6136   28.7132 C   0  0  0  0  0  0  0  0  0  0  0  0
  -13.6006    2.8186   29.9932 C   0  0  0  0  0  0  0  0  0  0  0  0
  -13.7819    3.0544   31.1069 C   0  0  0  0  0  0  0  0  0  0  0  0
  -13.8855    3.4057   32.4990 C   0  0  0  0  0  0  0  0  0  0  0  0
  -13.8705    3.9759   33.3969 C   0  0  0  0  0  0  0  0  0  0  0  0
  -13.2296    3.3574   34.4433 C   0  0  0  0  0  0  0  0  0  0  0  0
  -12.6900    4.1808   35.5686 C   0  0  0  0  0  0  0  0  0  0  0  0
  -13.1253    5.5035   35.5899 C   0  0  0  0  0  0  0  0  0  0  0  0
  -13.8213    6.0843   34.5778 C   0  0  0  0  0  0  0  0  0  0  0  0
  1  4  1  0
  4  8  1  0
  4  9  2  0
  5 10  1  0
 10 11  1  0
 10 12  1  0
 12 13  2  3
 13 14  1  0
 14 15  2  3
 15 16  1  0
 16 17  3  0
 17 18  1  0
 18 19  3  0
 19 20  1  0
 20 21  2  3
 21 22  1  0
 22 23  2  0
  1  2  2  0
  2  3  1  0
  3  5  2  0
  5  6  1  0
  6  7  2  0
  7  1  1  0
M  END
$$$$
