No_5337-complexes_sdf/6BKW-FPZ/2024-09-17-14-21-01/
     RDKit          3D

 16 17  0  0  0  0  0  0  0  0999 V2000
   -7.7129    4.2099   27.0854 C   0  0  0  0  0  0  0  0  0  0  0  0
   -8.2112    3.0637   26.9225 C   0  0  0  0  0  0  0  0  0  0  0  0
   -8.5108    5.3904   26.9436 C   0  0  0  0  0  0  0  0  0  0  0  0
   -9.7256    5.1955   26.3518 C   0  0  0  0  0  0  0  0  0  0  0  0
   -9.4995    2.8258   26.4878 C   0  0  0  0  0  0  0  0  0  0  0  0
  -10.2542    3.9691   26.2055 C   0  0  0  0  0  0  0  0  0  0  0  0
   -7.9470    6.5632   27.1671 F   0  0  0  0  0  0  0  0  0  0  0  0
   -7.3585    1.8210   27.2484 C   0  0  0  0  0  0  0  0  0  0  0  0
   -7.7814    0.6469   27.1736 O   0  0  0  0  0  0  0  0  0  0  0  0
   -6.1348    2.0156   27.6458 O   0  0  0  0  0  0  0  0  0  0  0  0
   -5.2788    0.9429   27.9399 C   0  0  0  0  0  0  0  0  0  0  0  0
   -5.6313   -0.2279   27.9061 C   0  0  0  0  0  0  0  0  0  0  0  0
   -4.8131   -1.3420   28.2745 C   0  0  0  0  0  0  0  0  0  0  0  0
   -3.4823   -0.9181   28.7224 C   0  0  0  0  0  0  0  0  0  0  0  0
   -3.1099    0.4068   28.7263 C   0  0  0  0  0  0  0  0  0  0  0  0
   -3.9587    1.3636   28.3869 C   0  0  0  0  0  0  0  0  0  0  0  0
  3  7  1  0
  2  8  1  0
  8  9  2  0
  8 10  1  0
 10 11  1  0
 11 12  2  0
 12 13  1  0
 13 14  2  0
 14 15  1  0
 15 16  2  0
 16 11  1  0
  1  2  2  0
  2  5  1  0
  5  6  2  0
  6  4  1  0
  4  3  2  0
  3  1  1  0
M  END
$$$$
