No_5608-complexes_sdf/6BKW-FPZ/2024-09-17-14-21-01/
     RDKit          3D

 14 15  0  0  0  0  0  0  0  0999 V2000
   -7.7129    4.2099   27.0854 C   0  0  0  0  0  0  0  0  0  0  0  0
   -7.7814    5.1722   27.8972 C   0  0  0  0  0  0  0  0  0  0  0  0
   -8.8776    3.8408   26.3416 C   0  0  0  0  0  0  0  0  0  0  0  0
   -8.9136    2.6330   25.5655 C   0  0  0  0  0  0  0  0  0  0  0  0
   -8.8361    6.1389   27.9032 C   0  0  0  0  0  0  0  0  0  0  0  0
   -9.9718    4.7048   26.3433 C   0  0  0  0  0  0  0  0  0  0  0  0
   -9.9205    5.8499   27.1013 C   0  0  0  0  0  0  0  0  0  0  0  0
   -9.7340    1.6862   26.0433 C   0  0  0  0  0  0  0  0  0  0  0  0
  -10.6339    1.6864   26.8329 C   0  0  0  0  0  0  0  0  0  0  0  0
  -11.2837    0.5061   27.4077 C   0  0  0  0  0  0  0  0  0  0  0  0
   -9.4831    0.3133   25.4322 C   0  0  0  0  0  0  0  0  0  0  0  0
  -10.1436   -0.8184   25.8664 C   0  0  0  0  0  0  0  0  0  0  0  0
  -11.0602   -0.6848   26.9063 C   0  0  0  0  0  0  0  0  0  0  0  0
  -11.9540   -2.2156   27.5276 Br  0  0  0  0  0  0  0  0  0  0  0  0
  3  4  1  0
  4  8  1  0
 13 14  1  0
  8  9  2  0
  9 10  1  0
 10 13  2  0
 13 12  1  0
 12 11  2  0
 11  8  1  0
  1  2  2  0
  2  5  1  0
  5  7  2  0
  7  6  1  0
  6  3  2  0
  3  1  1  0
M  END
$$$$
