No_5969-complexes_sdf/6BKW-FPZ/2024-09-17-14-21-01/
     RDKit          3D

 17 19  0  0  0  0  0  0  0  0999 V2000
   -7.7129    4.2099   27.0854 C   0  0  0  0  0  0  0  0  0  0  0  0
   -7.7814    5.1722   27.8972 C   0  0  0  0  0  0  0  0  0  0  0  0
   -8.8776    3.8408   26.3416 C   0  0  0  0  0  0  0  0  0  0  0  0
   -9.9844    4.6492   26.4743 C   0  0  0  0  0  0  0  0  0  0  0  0
   -8.7830    6.1594   27.8870 C   0  0  0  0  0  0  0  0  0  0  0  0
   -9.9269    5.8191   27.1183 C   0  0  0  0  0  0  0  0  0  0  0  0
   -8.8618    2.6242   25.5633 C   0  0  0  0  0  0  0  0  0  0  0  0
   -8.2681    1.5598   26.1237 N   0  0  0  0  0  0  0  0  0  0  0  0
   -8.0939    0.3801   25.5210 C   0  0  0  0  0  0  0  0  0  0  0  0
   -7.2623   -0.5642   26.1496 C   0  0  0  0  0  0  0  0  0  0  0  0
   -6.5636   -0.1601   27.2662 C   0  0  0  0  0  0  0  0  0  0  0  0
   -6.5930    1.1510   27.7871 C   0  0  0  0  0  0  0  0  0  0  0  0
   -7.4093    2.0139   27.2064 C   0  0  1  0  0  0  0  0  0  0  0  0
   -7.3184    3.2447   27.5932 N   0  0  0  0  0  0  0  0  0  0  0  0
   -9.7824    2.4611   24.6815 O   0  0  0  0  0  0  0  0  0  0  0  0
   -5.7042   -1.2089   28.0014 C   0  0  0  0  0  0  0  0  0  0  0  0
   -5.8582   -2.1876   28.1541 N   0  0  0  0  0  0  0  0  0  0  0  0
  3  7  1  0
  7  8  1  0
  8  9  1  0
  9 10  1  0
 11 12  1  0
  8 13  1  0
  1 14  1  0
 13 14  1  0
  7 15  2  0
 11 16  1  0
 16 17  3  0
 10 11  1  0
 13 12  1  6
  1  2  2  0
  2  5  1  0
  5  6  2  0
  6  4  1  0
  4  3  2  0
  3  1  1  0
M  END
$$$$
