No_5746-complexes_sdf/6BKW-FPZ/2024-09-17-14-21-01/
     RDKit          3D

 40 45  0  0  0  0  0  0  0  0999 V2000
   -7.7129    4.2099   27.0854 C   0  0  0  0  0  0  0  0  0  0  0  0
   -7.7814    5.1722   27.8972 C   0  0  0  0  0  0  0  0  0  0  0  0
   -8.8998    3.8713   26.3707 C   0  0  0  0  0  0  0  0  0  0  0  0
   -9.7416    3.2213   26.9591 C   0  0  0  0  0  0  0  0  0  0  0  0
  -10.0326    3.7911   28.3648 C   0  0  0  0  0  0  0  0  0  0  0  0
   -9.0681    5.0614   28.7250 C   0  0  0  0  0  0  0  0  0  0  0  0
   -9.3776    1.7627   27.2039 C   0  0  0  0  0  0  0  0  0  0  0  0
  -10.4947    0.8874   27.4451 C   0  0  0  0  0  0  0  0  0  0  0  0
  -11.7119    1.4349   27.6611 C   0  0  0  0  0  0  0  0  0  0  0  0
  -12.8127    0.5322   27.9987 C   0  0  0  0  0  0  0  0  0  0  0  0
  -14.0843    1.0471   28.2960 C   0  0  0  0  0  0  0  0  0  0  0  0
  -14.2565    2.4420   28.2872 C   0  0  0  0  0  0  0  0  0  0  0  0
  -13.2449    3.2992   28.0097 C   0  0  0  0  0  0  0  0  0  0  0  0
  -11.9541    2.8317   27.7440 C   0  0  0  0  0  0  0  0  0  0  0  0
  -11.1132    3.8581   28.3222 C   0  0  0  0  0  0  0  0  0  0  0  0
  -10.3012   -0.5331   27.2911 C   0  0  0  0  0  0  0  0  0  0  0  0
   -9.1150   -0.9747   26.8731 C   0  0  0  0  0  0  0  0  0  0  0  0
   -8.0714   -0.0408   26.5907 C   0  0  0  0  0  0  0  0  0  0  0  0
   -8.1885    1.2500   26.6880 C   0  0  0  0  0  0  0  0  0  0  0  0
   -6.7037   -0.6706   26.2325 C   0  0  0  0  0  0  0  0  0  0  0  0
   -6.5980   -0.8996   25.0478 O   0  0  0  0  0  0  0  0  0  0  0  0
   -5.7795   -0.8422   27.1852 O   0  0  0  0  0  0  0  0  0  0  0  0
   -4.4963   -0.8935   26.9994 C   0  0  0  0  0  0  0  0  0  0  0  0
   -3.8196    0.2659   27.3163 C   0  0  1  0  0  0  0  0  0  0  0  0
   -4.3280    1.1385   27.9712 O   0  0  0  0  0  0  0  0  0  0  0  0
   -2.4230    0.0142   28.0548 C   0  0  0  0  0  0  0  0  0  0  0  0
   -2.2859   -1.1606   28.2784 O   0  0  0  0  0  0  0  0  0  0  0  0
   -2.5480   -1.6837   29.2134 C   0  0  0  0  0  0  0  0  0  0  0  0
   -3.1944   -1.0518   30.1725 C   0  0  0  0  0  0  0  0  0  0  0  0
   -3.4603   -1.6572   31.4826 C   0  0  0  0  0  0  0  0  0  0  0  0
   -4.1963   -0.9990   32.5142 C   0  0  0  0  0  0  0  0  0  0  0  0
   -4.5305   -1.6254   33.7449 C   0  0  0  0  0  0  0  0  0  0  0  0
   -4.0180   -2.9214   33.9338 C   0  0  0  0  0  0  0  0  0  0  0  0
   -3.2737   -3.4847   32.9859 C   0  0  0  0  0  0  0  0  0  0  0  0
   -2.9653   -2.8929   31.8194 C   0  0  0  0  0  0  0  0  0  0  0  0
   -2.1567   -3.0655   29.4825 C   0  0  0  0  0  0  0  0  0  0  0  0
   -2.2813   -3.6060   30.7775 C   0  0  0  0  0  0  0  0  0  0  0  0
   -5.4541   -0.7406   34.8946 Cl  0  0  0  0  0  0  0  0  0  0  0  0
   -5.1868    2.5212   27.4861 P   0  0  0  0  0  0  0  0  0  0  0  0
   -6.5863    2.1259   27.8959 O   0  0  0  0  0  0  0  0  0  0  0  0
  4  7  1  0
  8  9  1  0
  5 15  1  0
 14 15  1  0
 18 20  1  0
 20 21  2  0
 20 22  1  0
 22 23  1  0
 24 23  1  1
 24 25  1  0
 24 26  1  0
 26 27  1  0
 27 28  1  0
 32 38  1  0
 25 39  1  0
 39 40  1  0
 30 31  2  0
 31 32  1  0
 32 33  2  0
 33 34  1  0
 34 35  2  0
  9 10  2  0
 10 11  1  0
 11 12  2  0
 12 13  1  0
 13 14  2  0
 14  9  1  0
  7  8  2  0
  8 16  1  0
 16 17  2  0
 17 18  1  0
 18 19  2  0
 19  7  1  0
  1  2  2  0
  2  6  1  0
  6  5  2  0
  5  4  1  0
  4  3  2  0
  3  1  1  0
 28 29  2  0
 29 30  1  0
 30 35  1  0
 35 37  1  0
 37 36  2  0
 36 28  1  0
M  END
$$$$
