No_5003-complexes_sdf/6BKW-FPZ/2024-09-17-14-21-01/
     RDKit          3D

 18 19  0  0  0  0  0  0  0  0999 V2000
   -7.7129    4.2099   27.0854 C   0  0  0  0  0  0  0  0  0  0  0  0
   -8.9133    4.4736   27.0998 C   0  0  0  0  0  0  0  0  0  0  0  0
   -9.4643    5.5426   27.7628 C   0  0  0  0  0  0  0  0  0  0  0  0
   -7.2009    2.9448   26.6134 C   0  0  0  0  0  0  0  0  0  0  0  0
   -8.1365    1.9533   26.2981 C   0  0  0  0  0  0  0  0  0  0  0  0
   -9.4514    2.2934   26.2667 C   0  0  0  0  0  0  0  0  0  0  0  0
   -9.8600    3.4834   26.7068 C   0  0  0  0  0  0  0  0  0  0  0  0
   -7.6019    0.6586   25.9004 C   0  0  0  0  0  0  0  0  0  0  0  0
   -6.7961    0.0318   26.5620 O   0  0  0  0  0  0  0  0  0  0  0  0
   -7.0286   -1.0315   27.2189 C   0  0  0  0  0  0  0  0  0  0  0  0
   -6.2351   -1.3241   28.3152 C   0  0  0  0  0  0  0  0  0  0  0  0
   -5.1937   -0.4583   28.5948 C   0  0  0  0  0  0  0  0  0  0  0  0
   -4.3593   -0.5301   29.7922 C   0  0  0  0  0  0  0  0  0  0  0  0
   -4.6983   -1.5064   30.7423 C   0  0  0  0  0  0  0  0  0  0  0  0
   -5.7641   -2.3358   30.4624 C   0  0  0  0  0  0  0  0  0  0  0  0
   -6.5272   -2.2069   29.3505 C   0  0  0  0  0  0  0  0  0  0  0  0
   -7.9983   -1.9272   26.8997 C   0  0  0  0  0  0  0  0  0  0  0  0
   -7.8250   -2.8582   26.0257 C   0  0  0  0  0  0  0  0  0  0  0  0
  5  8  1  0
  8  9  1  0
  9 10  1  0
 10 11  1  0
 10 17  1  0
 17 18  2  0
  3  2  1  0
 11 12  2  0
 12 13  1  0
 13 14  2  0
 14 15  1  0
 15 16  2  0
 16 11  1  0
  1  2  2  0
  2  7  1  0
  7  6  2  0
  6  5  1  0
  5  4  2  0
  4  1  1  0
M  END
$$$$
