No_5540-complexes_sdf/6BKW-FPZ/2024-09-17-14-21-01/
     RDKit          3D

 16 18  0  0  0  0  0  0  0  0999 V2000
   -7.7129    4.2099   27.0854 C   0  0  0  0  0  0  0  0  0  0  0  0
   -7.7814    5.1722   27.8972 C   0  0  0  0  0  0  0  0  0  0  0  0
   -7.2983    2.9533   27.5684 C   0  0  0  0  0  0  0  0  0  0  0  0
   -7.6908    1.8111   26.9553 C   0  0  0  0  0  0  0  0  0  0  0  0
   -8.6533    1.9165   25.9430 C   0  0  0  0  0  0  0  0  0  0  0  0
   -9.2376    3.0581   25.6387 C   0  0  0  0  0  0  0  0  0  0  0  0
   -8.8901    4.1760   26.2867 C   0  0  0  0  0  0  0  0  0  0  0  0
   -8.3894    6.3916   27.5666 N   0  0  0  0  0  0  0  0  0  0  0  0
   -7.0671    0.5323   27.2925 C   0  0  0  0  0  0  0  0  0  0  0  0
   -7.7284   -0.6548   27.2281 C   0  0  0  0  0  0  0  0  0  0  0  0
   -7.1394   -1.8317   27.6306 C   0  0  0  0  0  0  0  0  0  0  0  0
   -5.7212    0.5140   27.7592 C   0  0  0  0  0  0  0  0  0  0  0  0
   -5.1070   -0.6277   28.1875 C   0  0  0  0  0  0  0  0  0  0  0  0
   -5.8417   -1.8116   28.1552 C   0  0  0  0  0  0  0  0  0  0  0  0
   -9.5909    5.3597   25.9124 C   0  0  0  0  0  0  0  0  0  0  0  0
   -9.2684    6.5462   26.6185 C   0  0  0  0  0  0  0  0  0  0  0  0
  4  9  1  0
  1  2  2  0
  2  8  1  0
  8 16  2  0
 16 15  1  0
 15  7  2  0
  9 10  2  0
 10 11  1  0
 11 14  2  0
 14 13  1  0
 13 12  2  0
 12  9  1  0
  1  3  1  0
  3  4  2  0
  4  5  1  0
  5  6  2  0
  6  7  1  0
  7  1  1  0
M  END
$$$$
