No_5706-complexes_sdf/6BKW-FPZ/2024-09-17-14-21-01/
     RDKit          3D

 10 10  0  0  0  0  0  0  0  0999 V2000
   -7.9040    3.9820   27.1177 C   0  0  0  0  0  0  0  0  0  0  0  0
   -7.8663    4.8694   27.9238 C   0  0  0  0  0  0  0  0  0  0  0  0
   -9.0491    3.8523   26.2542 C   0  0  0  0  0  0  0  0  0  0  0  0
   -9.9827    3.2456   26.6451 C   0  0  0  0  0  0  0  0  0  0  0  0
  -10.8316    2.5972   25.8351 C   0  0  0  0  0  0  0  0  0  0  0  0
   -9.1575    5.1493   28.5908 C   0  0  0  0  0  0  0  0  0  0  0  0
  -10.2852    4.5008   27.8647 C   0  0  0  0  0  0  0  0  0  0  0  0
  -11.8035    2.2079   25.7237 C   0  0  0  0  0  0  0  0  0  0  0  0
  -12.7000    2.4475   26.9122 C   0  0  0  0  0  0  0  0  0  0  0  0
  -14.0577    1.9682   26.9061 C   0  0  0  0  0  0  0  0  0  0  0  0
  1  2  1  0
  1  3  1  0
  3  4  1  0
  4  5  2  3
  2  6  1  0
  4  7  1  0
  6  7  1  0
  5  8  1  0
  8  9  1  0
  9 10  2  0
M  END
$$$$
