No_5688-complexes_sdf/6BKW-FPZ/2024-09-17-14-21-01/
     RDKit          3D

 31 36  0  0  0  0  0  0  0  0999 V2000
   -7.9040    3.9820   27.1177 C   0  0  0  0  0  0  0  0  0  0  0  0
   -7.8663    4.8694   27.9238 C   0  0  0  0  0  0  0  0  0  0  0  0
   -7.4547    2.7080   27.4594 C   0  0  0  0  0  0  0  0  0  0  0  0
   -7.9337    1.5946   26.8372 C   0  0  0  0  0  0  0  0  0  0  0  0
   -8.9032    1.7881   25.8510 C   0  0  0  0  0  0  0  0  0  0  0  0
   -9.3787    2.9871   25.5530 C   0  0  0  0  0  0  0  0  0  0  0  0
   -8.9781    4.0300   26.2200 C   0  0  0  0  0  0  0  0  0  0  0  0
   -7.0491    4.9785   28.9506 N   0  0  0  0  0  0  0  0  0  0  0  0
   -8.3838    6.2335   27.5214 C   0  0  0  0  0  0  0  0  0  0  0  0
   -9.5173    6.4376   26.8484 C   0  0  0  0  0  0  0  0  0  0  0  0
   -9.6666    5.3086   25.8990 C   0  0  0  0  0  0  0  0  0  0  0  0
   -7.3106    0.2742   27.0709 C   0  0  0  0  0  0  0  0  0  0  0  0
   -6.0607    0.1691   27.6146 C   0  0  0  0  0  0  0  0  0  0  0  0
   -5.5041   -1.0750   27.9525 C   0  0  0  0  0  0  0  0  0  0  0  0
   -6.3273   -2.1769   27.8221 C   0  0  0  0  0  0  0  0  0  0  0  0
   -7.8910   -0.9994   27.0831 C   0  0  0  0  0  0  0  0  0  0  0  0
   -7.5089   -2.1199   27.4211 C   0  0  0  0  0  0  0  0  0  0  0  0
   -4.0829   -1.0685   28.4842 C   0  0  0  0  0  0  0  0  0  0  0  0
   -3.1894   -0.1890   27.9585 C   0  0  0  0  0  0  0  0  0  0  0  0
   -3.4906    0.8866   27.4508 C   0  0  0  0  0  0  0  0  0  0  0  0
   -4.9788    1.1814   27.2327 C   0  0  0  0  0  0  0  0  0  0  0  0
  -10.3448    3.0372   24.4166 C   0  0  0  0  0  0  0  0  0  0  0  0
  -11.4713    3.7193   24.4520 C   0  0  0  0  0  0  0  0  0  0  0  0
   -9.8742    2.5904   23.1435 C   0  0  0  0  0  0  0  0  0  0  0  0
  -12.3810    3.7033   23.4036 C   0  0  0  0  0  0  0  0  0  0  0  0
  -10.7196    2.5789   22.0656 C   0  0  0  0  0  0  0  0  0  0  0  0
  -11.9476    3.2014   22.1506 C   0  0  0  0  0  0  0  0  0  0  0  0
   -3.6165   -2.3258   29.1799 C   0  0  0  0  0  0  0  0  0  0  0  0
   -2.4297   -2.5168   29.1693 C   0  0  0  0  0  0  0  0  0  0  0  0
   -1.3794   -1.5698   28.7986 C   0  0  0  0  0  0  0  0  0  0  0  0
   -1.7663   -0.3677   28.2619 C   0  0  0  0  0  0  0  0  0  0  0  0
  1  2  1  0
  2  8  2  0
  2  9  1  0
  9 10  1  0
  7 11  1  0
 10 11  1  0
  4 12  1  0
  6 22  1  0
  1  3  2  0
  3  4  1  0
  4  5  2  0
  5  6  1  0
  6  7  2  0
  7  1  1  0
 12 13  2  0
 14 15  2  0
 15 17  1  0
 17 16  2  0
 16 12  1  0
 19 31  2  0
 31 30  1  0
 30 29  2  0
 29 28  1  0
 28 18  2  0
 13 14  1  0
 14 18  1  0
 18 19  1  0
 19 20  1  0
 20 21  2  0
 21 13  1  0
 22 23  2  0
 23 25  1  0
 25 27  2  0
 27 26  1  0
 26 24  2  0
 24 22  1  0
M  END
$$$$
