No_5354-complexes_sdf/6BKW-FPZ/2024-09-17-14-21-01/
     RDKit          3D

 40 43  0  0  0  0  0  0  0  0999 V2000
   -7.7129    4.2099   27.0854 C   0  0  0  0  0  0  0  0  0  0  0  0
   -8.2112    3.0637   26.9225 C   0  0  0  0  0  0  0  0  0  0  0  0
   -9.4446    2.8304   26.1868 C   0  0  0  0  0  0  0  0  0  0  0  0
   -8.4697    5.3956   26.7238 C   0  0  0  0  0  0  0  0  0  0  0  0
   -8.0091    6.7588   26.9904 C   0  0  0  0  0  0  0  0  0  0  0  0
  -10.1208    3.9213   25.7408 C   0  0  0  0  0  0  0  0  0  0  0  0
   -9.5939    5.2027   25.9665 C   0  0  0  0  0  0  0  0  0  0  0  0
   -7.1418    6.8792   27.9186 O   0  0  0  0  0  0  0  0  0  0  0  0
   -8.3150    7.8649   26.2496 N   0  0  0  0  0  0  0  0  0  0  0  0
   -7.2974    1.9063   27.4335 C   0  0  0  0  0  0  0  0  0  0  0  0
   -7.8341    0.5709   27.3728 C   0  0  0  0  0  0  0  0  0  0  0  0
   -7.0160   -0.4642   27.7932 C   0  0  0  0  0  0  0  0  0  0  0  0
   -5.6935   -0.1773   28.2095 C   0  0  0  0  0  0  0  0  0  0  0  0
   -5.1987    1.1463   28.1425 C   0  0  0  0  0  0  0  0  0  0  0  0
   -5.9629    2.1410   27.7508 C   0  0  0  0  0  0  0  0  0  0  0  0
   -4.8269   -1.2754   28.7063 C   0  0  0  0  0  0  0  0  0  0  0  0
   -5.0252   -2.2783   28.9436 O   0  0  0  0  0  0  0  0  0  0  0  0
   -3.5024   -0.8706   28.9709 O   0  0  0  0  0  0  0  0  0  0  0  0
   -2.7014   -1.5105   29.3654 C   0  0  0  0  0  0  0  0  0  0  0  0
   -1.8343   -1.8565   28.8341 C   0  0  0  0  0  0  0  0  0  0  0  0
   -2.7588   -1.6986   30.9038 C   0  0  0  0  0  0  0  0  0  0  0  0
   -3.4469   -0.7897   31.7643 C   0  0  0  0  0  0  0  0  0  0  0  0
   -4.3095   -1.2061   32.6042 C   0  0  0  0  0  0  0  0  0  0  0  0
   -4.0036   -1.5389   33.8315 C   0  0  0  0  0  0  0  0  0  0  0  0
   -5.0330   -1.8959   34.8497 C   0  0  0  0  0  0  0  0  0  0  0  0
   -6.3716   -1.9151   34.4273 C   0  0  0  0  0  0  0  0  0  0  0  0
   -6.6797   -1.5187   33.1056 C   0  0  0  0  0  0  0  0  0  0  0  0
   -5.6941   -1.1572   32.2317 C   0  0  0  0  0  0  0  0  0  0  0  0
   -3.8488   -2.0849   32.0685 Cl  0  0  0  0  0  0  0  0  0  0  0  0
   -6.1637   -0.9603   31.0075 O   0  0  0  0  0  0  0  0  0  0  0  0
   -5.7847    0.2235   32.4432 O   0  0  0  0  0  0  0  0  0  0  0  0
   -1.3750   -2.3084   31.3709 C   0  0  0  0  0  0  0  0  0  0  0  0
   -0.4176   -2.6437   30.5855 C   0  0  0  0  0  0  0  0  0  0  0  0
   -0.5640   -2.3419   29.2265 C   0  0  0  0  0  0  0  0  0  0  0  0
   -4.6241   -2.2134   36.1848 C   0  0  0  0  0  0  0  0  0  0  0  0
   -5.3594   -2.5836   37.0427 C   0  0  0  0  0  0  0  0  0  0  0  0
   -4.9982   -2.8157   38.4590 C   0  0  0  0  0  0  0  0  0  0  0  0
   -3.6889   -2.5704   38.7670 C   0  0  0  0  0  0  0  0  0  0  0  0
   -3.2917   -1.9004   36.7605 C   0  0  0  0  0  0  0  0  0  0  0  0
   -2.8410   -2.0743   37.9197 C   0  0  0  0  0  0  0  0  0  0  0  0
  4  5  1  0
  5  8  2  0
  5  9  1  0
  2 10  1  0
 13 16  1  0
 16 17  2  0
 16 18  1  0
 18 19  1  0
 21 22  1  0
 22 23  1  0
 23 24  2  3
 24 25  1  0
 25 26  2  3
 26 27  1  0
 27 28  2  3
 23 29  1  0
 28 30  1  0
 28 31  1  0
 25 35  1  0
  1  2  2  0
  2  3  1  0
  3  6  2  0
  6  7  1  0
  7  4  2  0
  4  1  1  0
 19 20  2  0
 20 34  1  0
 34 33  2  0
 33 32  1  0
 32 21  2  0
 21 19  1  0
 10 11  2  0
 11 12  1  0
 12 13  2  0
 13 14  1  0
 14 15  2  0
 15 10  1  0
 35 36  2  0
 36 37  1  0
 37 38  2  0
 38 40  1  0
 40 39  2  0
 39 35  1  0
M  END
$$$$
