No_5909-complexes_sdf/6BKW-FPZ/2024-09-17-14-21-01/
     RDKit          3D

 15 17  0  0  0  0  0  0  0  0999 V2000
   -7.7129    4.2099   27.0854 C   0  0  0  0  0  0  0  0  0  0  0  0
   -7.7814    5.1722   27.8972 C   0  0  0  0  0  0  0  0  0  0  0  0
   -8.8776    3.8408   26.3416 C   0  0  0  0  0  0  0  0  0  0  0  0
   -9.9844    4.6492   26.4743 C   0  0  0  0  0  0  0  0  0  0  0  0
   -8.7830    6.1594   27.8870 C   0  0  0  0  0  0  0  0  0  0  0  0
   -9.9269    5.8191   27.1183 C   0  0  0  0  0  0  0  0  0  0  0  0
   -8.8618    2.6242   25.5633 C   0  0  0  0  0  0  0  0  0  0  0  0
   -9.6903    1.6716   26.0432 C   0  0  0  0  0  0  0  0  0  0  0  0
  -10.6294    1.6027   26.5934 C   0  0  0  0  0  0  0  0  0  0  0  0
  -11.3464    2.8063   27.1375 C   0  0  0  0  0  0  0  0  0  0  0  0
  -11.0868    3.8891   27.1549 N   0  0  0  0  0  0  0  0  0  0  0  0
   -9.1561    0.2696   25.4449 C   0  0  0  0  0  0  0  0  0  0  0  0
   -9.6159   -0.7396   25.9949 C   0  0  0  0  0  0  0  0  0  0  0  0
  -10.7305   -0.7828   26.8593 C   0  0  0  0  0  0  0  0  0  0  0  0
  -11.2639    0.3544   27.2170 C   0  0  0  0  0  0  0  0  0  0  0  0
  3  7  1  0
  7  8  1  0
  9 10  1  0
  4 11  1  0
 10 11  2  0
  8  9  2  0
  9 15  1  0
 15 14  2  0
 14 13  1  0
 13 12  2  0
 12  8  1  0
  1  2  2  0
  2  5  1  0
  5  6  2  0
  6  4  1  0
  4  3  2  0
  3  1  1  0
M  END
$$$$
