No_5449-complexes_sdf/6BKW-FPZ/2024-09-17-14-21-01/
     RDKit          3D

 16 18  0  0  0  0  0  0  0  0999 V2000
   -7.9040    3.9820   27.1177 C   0  0  0  0  0  0  0  0  0  0  0  0
   -7.8663    4.8694   27.9238 C   0  0  0  0  0  0  0  0  0  0  0  0
   -9.0491    3.8523   26.2542 C   0  0  0  0  0  0  0  0  0  0  0  0
   -8.7661    5.9491   27.9690 C   0  0  0  0  0  0  0  0  0  0  0  0
   -9.9295    4.8502   26.2323 C   0  0  0  0  0  0  0  0  0  0  0  0
   -9.8077    5.9288   27.0933 C   0  0  0  0  0  0  0  0  0  0  0  0
   -7.0120    2.8934   27.1747 N   0  0  0  0  0  0  0  0  0  0  0  0
   -7.2911    1.5905   26.8161 C   0  0  0  0  0  0  0  0  0  0  0  0
   -6.3069    0.6382   27.1886 C   0  0  0  0  0  0  0  0  0  0  0  0
   -5.2276    1.3120   27.8406 C   0  0  0  0  0  0  0  0  0  0  0  0
   -5.8302    2.9900   27.8867 C   0  0  0  0  0  0  0  0  0  0  0  0
   -4.0307    1.0500   28.3829 C   0  0  0  0  0  0  0  0  0  0  0  0
   -3.8209   -0.3066   28.6838 C   0  0  0  0  0  0  0  0  0  0  0  0
   -4.2263   -1.1767   28.1491 C   0  0  0  0  0  0  0  0  0  0  0  0
   -5.5347   -1.5105   27.5024 C   0  0  0  0  0  0  0  0  0  0  0  0
   -6.4060   -0.6362   27.0714 C   0  0  0  0  0  0  0  0  0  0  0  0
  1  7  1  0
  7  8  1  0
  8  9  2  0
  9 10  1  0
  7 11  1  0
 10 11  2  0
 10 12  1  0
 12 13  1  0
 13 14  2  0
 14 15  1  0
  9 16  1  0
 15 16  1  0
  1  2  2  0
  2  4  1  0
  4  6  2  0
  6  5  1  0
  5  3  2  0
  3  1  1  0
M  END
$$$$
