No_5090-complexes_sdf/6BKW-FPZ/2024-09-17-14-21-01/
     RDKit          3D

 34 38  0  0  0  0  0  0  0  0999 V2000
   -7.9040    3.9820   27.1177 C   0  0  0  0  0  0  0  0  0  0  0  0
   -8.2057    2.8231   26.8733 C   0  0  0  0  0  0  0  0  0  0  0  0
   -9.2962    2.4021   26.1155 C   0  0  0  0  0  0  0  0  0  0  0  0
   -8.7358    5.0662   26.5917 C   0  0  0  0  0  0  0  0  0  0  0  0
   -9.7618    4.7023   25.7546 C   0  0  0  0  0  0  0  0  0  0  0  0
  -10.0066    3.4105   25.4922 C   0  0  0  0  0  0  0  0  0  0  0  0
   -8.3936    6.4769   26.8843 C   0  0  0  0  0  0  0  0  0  0  0  0
   -8.0307    6.8601   28.0802 N   0  0  0  0  0  0  0  0  0  0  0  0
   -8.6536    7.3503   25.9875 O   0  0  0  0  0  0  0  0  0  0  0  0
   -7.3517    1.6703   27.5004 C   0  0  2  0  0  0  0  0  0  0  0  0
   -5.9866    1.9238   27.7941 C   0  0  0  0  0  0  0  0  0  0  0  0
   -5.1953    0.8658   28.3019 C   0  0  0  0  0  0  0  0  0  0  0  0
   -5.7157   -0.3880   28.4723 C   0  0  0  0  0  0  0  0  0  0  0  0
   -7.8953    0.3880   27.6331 C   0  0  0  0  0  0  0  0  0  0  0  0
   -7.0842   -0.6109   28.1409 C   0  0  0  0  0  0  0  0  0  0  0  0
   -4.9161   -1.4448   29.0608 C   0  0  0  0  0  0  0  0  0  0  0  0
   -3.7722   -1.4466   28.9138 C   0  0  0  0  0  0  0  0  0  0  0  0
   -3.0019   -0.1194   28.6645 C   0  0  0  0  0  0  0  0  0  0  0  0
   -3.7493    0.9896   28.2293 C   0  0  0  0  0  0  0  0  0  0  0  0
  -11.0854    3.0905   24.5561 C   0  0  0  0  0  0  0  0  0  0  0  0
  -10.7598    2.3297   23.7437 F   0  0  0  0  0  0  0  0  0  0  0  0
  -12.2008    2.6542   25.2466 F   0  0  0  0  0  0  0  0  0  0  0  0
  -11.4880    4.2051   23.8983 F   0  0  0  0  0  0  0  0  0  0  0  0
   -2.7903   -2.4335   29.5162 C   0  0  0  0  0  0  0  0  0  0  0  0
   -2.0650   -2.9020   28.7704 F   0  0  0  0  0  0  0  0  0  0  0  0
   -3.6404   -3.4822   29.9578 F   0  0  0  0  0  0  0  0  0  0  0  0
   -2.1625   -2.0482   30.6521 F   0  0  0  0  0  0  0  0  0  0  0  0
   -7.7083   -1.9169   28.3736 C   0  0  0  0  0  0  0  0  0  0  0  0
   -8.9389   -2.1066   28.1489 C   0  0  0  0  0  0  0  0  0  0  0  0
   -9.5503   -3.3123   28.4034 C   0  0  0  0  0  0  0  0  0  0  0  0
   -8.7454   -4.3624   28.8319 C   0  0  0  0  0  0  0  0  0  0  0  0
   -7.4353   -4.2235   29.0665 C   0  0  0  0  0  0  0  0  0  0  0  0
   -6.8814   -3.0415   28.8690 C   0  0  0  0  0  0  0  0  0  0  0  0
   -5.4446   -2.7356   29.1719 C   0  0  0  0  0  0  0  0  0  0  0  0
  1  2  2  0
  2  3  1  0
  1  4  1  0
  4  5  2  0
  3  6  1  0
  5  6  1  0
  4  7  1  0
  7  8  1  0
  7  9  2  0
 10  2  1  6
 10 11  1  0
 11 12  2  0
 12 13  1  0
 10 14  1  0
 13 15  2  0
 14 15  1  0
 13 16  1  0
 16 17  2  0
 17 18  1  0
 12 19  1  0
 18 19  2  0
  6 20  1  0
 20 21  1  0
 20 22  1  0
 20 23  1  0
 17 24  1  0
 24 25  1  0
 24 26  1  0
 24 27  1  0
 15 28  1  0
 28 29  2  0
 29 30  1  0
 30 31  2  0
 31 32  1  0
 28 33  1  0
 32 33  1  0
 16 34  1  0
 33 34  1  0
M  END
$$$$
