No_5300-complexes_sdf/6BKW-FPZ/2024-09-17-14-21-01/
     RDKit          3D

 10 11  0  0  0  0  0  0  0  0999 V2000
   -7.2496    3.8871   27.4508 C   0  0  0  0  0  0  0  0  0  0  0  0
   -7.6161    2.7143   27.1523 C   0  0  0  0  0  0  0  0  0  0  0  0
   -8.8302    2.4659   26.5056 C   0  0  0  0  0  0  0  0  0  0  0  0
   -8.1584    5.0090   27.3234 C   0  0  0  0  0  0  0  0  0  0  0  0
   -9.2382    4.8823   26.8337 C   0  0  0  0  0  0  0  0  0  0  0  0
   -9.6533    3.6268   26.3156 C   0  0  0  0  0  0  0  0  0  0  0  0
   -6.9508    1.4345   27.3055 C   0  0  0  0  0  0  0  0  0  0  0  0
   -7.3768    0.1880   27.1787 C   0  0  0  0  0  0  0  0  0  0  0  0
   -8.7218    0.1464   26.6264 C   0  0  0  0  0  0  0  0  0  0  0  0
   -9.4310    1.2467   26.2747 C   0  0  0  0  0  0  0  0  0  0  0  0
  1  2  2  0
  3  6  2  0
  6  5  1  0
  5  4  2  0
  4  1  1  0
  2  3  1  0
  3 10  1  0
 10  9  2  0
  9  8  1  0
  8  7  2  0
  7  2  1  0
M  END
$$$$
