No_5950-complexes_sdf/6BKW-FPZ/2024-09-17-14-21-01/
     RDKit          3D

 17 19  0  0  0  0  0  0  0  0999 V2000
   -7.2496    3.8871   27.4508 C   0  0  0  0  0  0  0  0  0  0  0  0
   -7.9379    4.9063   27.8518 C   0  0  0  0  0  0  0  0  0  0  0  0
   -9.3376    4.8647   27.7795 C   0  0  0  0  0  0  0  0  0  0  0  0
   -7.8544    2.6294   27.0414 C   0  0  0  0  0  0  0  0  0  0  0  0
   -9.2852    2.6570   27.0666 C   0  0  0  0  0  0  0  0  0  0  0  0
  -10.0126    3.7528   27.4890 C   0  0  0  0  0  0  0  0  0  0  0  0
   -9.9609    1.3640   26.7239 C   0  0  0  0  0  0  0  0  0  0  0  0
   -9.5398    0.4290   26.1345 C   0  0  0  0  0  0  0  0  0  0  0  0
  -10.2515   -0.7632   25.7931 C   0  0  0  0  0  0  0  0  0  0  0  0
  -11.3072    1.2048   27.2936 C   0  0  0  0  0  0  0  0  0  0  0  0
  -11.9189    2.2147   28.0432 C   0  0  0  0  0  0  0  0  0  0  0  0
  -11.3589    3.5112   28.0206 C   0  0  0  0  0  0  0  0  0  0  0  0
   -9.6772   -1.7327   25.0143 C   0  0  0  0  0  0  0  0  0  0  0  0
   -8.4035   -1.5595   24.5109 C   0  0  0  0  0  0  0  0  0  0  0  0
   -7.6153   -0.4539   24.7637 C   0  0  0  0  0  0  0  0  0  0  0  0
   -8.1185    0.5206   25.5161 C   0  0  0  0  0  0  0  0  0  0  0  0
   -7.3002    6.0801   28.1394 O   0  0  0  0  0  0  0  0  0  0  0  0
  2 17  1  0
  8  7  1  0
  8  9  2  0
  9 13  1  0
 13 14  2  0
 14 15  1  0
 15 16  2  0
 16  8  1  0
  1  2  2  0
  2  3  1  0
  3  6  2  0
  5  4  2  0
  4  1  1  0
  5  6  1  0
  6 12  1  0
 12 11  2  0
 11 10  1  0
 10  7  2  0
  7  5  1  0
M  END
$$$$
