No_5273-complexes_sdf/6BKW-FPZ/2024-09-17-14-21-01/
     RDKit          3D

 15 16  0  0  0  0  0  0  0  0999 V2000
   -7.7129    4.2099   27.0854 C   0  0  0  0  0  0  0  0  0  0  0  0
   -7.7814    5.1722   27.8972 C   0  0  0  0  0  0  0  0  0  0  0  0
   -8.8776    3.8408   26.3416 C   0  0  0  0  0  0  0  0  0  0  0  0
   -9.9844    4.6492   26.4743 C   0  0  0  0  0  0  0  0  0  0  0  0
   -8.7830    6.1594   27.8870 C   0  0  0  0  0  0  0  0  0  0  0  0
   -9.9269    5.8191   27.1183 C   0  0  0  0  0  0  0  0  0  0  0  0
   -9.1000    2.7123   25.6125 N   0  0  0  0  0  0  0  0  0  0  0  0
   -8.5249    1.5563   25.9105 C   0  0  0  0  0  0  0  0  0  0  0  0
   -8.6301    0.4840   25.0338 C   0  0  0  0  0  0  0  0  0  0  0  0
   -9.7513    2.7651   24.3997 C   0  0  0  0  0  0  0  0  0  0  0  0
   -9.8871    1.7815   23.5540 C   0  0  0  0  0  0  0  0  0  0  0  0
   -8.0048   -0.7712   25.4534 C   0  0  0  0  0  0  0  0  0  0  0  0
   -9.2706    0.6293   23.8645 C   0  0  0  0  0  0  0  0  0  0  0  0
   -8.1874   -1.2177   26.5495 O   0  0  0  0  0  0  0  0  0  0  0  0
   -7.2697   -1.3978   24.6144 O   0  0  0  0  0  0  0  0  0  0  0  0
  3  7  1  0
  7  8  1  0
  7 10  1  0
  9 12  1  0
  9 13  1  0
 11 13  1  0
 12 14  2  0
 12 15  1  0
  8  9  1  0
 11 10  1  0
  1  2  2  0
  2  5  1  0
  5  6  2  0
  6  4  1  0
  4  3  2  0
  3  1  1  0
M  END
$$$$
