No_5217-complexes_sdf/6BKW-FPZ/2024-09-17-14-21-01/
     RDKit          3D

 16 16  0  0  0  0  0  0  0  0999 V2000
   -7.9040    3.9820   27.1177 C   0  0  2  0  0  0  0  0  0  0  0  0
   -9.0711    4.3164   27.0630 C   0  0  0  0  0  0  0  0  0  0  0  0
   -9.5294    5.4517   27.7215 C   0  0  0  0  0  0  0  0  0  0  0  0
   -7.4336    2.7132   26.5681 C   0  0  0  0  0  0  0  0  0  0  0  0
   -8.3353    1.8569   26.0442 C   0  0  0  0  0  0  0  0  0  0  0  0
   -7.9243    0.5609   25.6726 C   0  0  0  0  0  0  0  0  0  0  0  0
  -10.0396    3.4856   26.3639 C   0  0  2  0  0  0  0  0  0  0  0  0
   -9.6183    2.2835   25.9020 C   0  0  0  0  0  0  0  0  0  0  0  0
   -7.0148   -0.0105   26.1814 O   0  0  0  0  0  0  0  0  0  0  0  0
   -8.5005    0.0516   24.5528 O   0  0  0  0  0  0  0  0  0  0  0  0
   -6.8961    4.5999   27.8412 F   0  0  0  0  0  0  0  0  0  0  0  0
  -11.4064    3.9256   26.1005 C   0  0  0  0  0  0  0  0  0  0  0  0
  -11.8993    4.0382   24.8922 C   0  0  0  0  0  0  0  0  0  0  0  0
  -11.0945    4.2124   23.7696 C   0  0  0  0  0  0  0  0  0  0  0  0
  -11.5012    4.3963   22.4582 C   0  0  0  0  0  0  0  0  0  0  0  0
  -10.5853    4.5666   21.4026 C   0  0  0  0  0  0  0  0  0  0  0  0
  1  2  1  0
  2  3  2  0
  1  4  1  0
  4  5  1  0
  5  6  1  0
  2  7  1  0
  5  8  1  0
  7  8  1  0
  6  9  2  0
  6 10  1  0
  1 11  1  1
  7 12  1  6
 12 13  1  0
 13 14  1  0
 14 15  2  3
 15 16  1  0
M  END
$$$$
