No_5565-complexes_sdf/6BKW-FPZ/2024-09-17-14-21-01/
     RDKit          3D

 25 27  0  0  0  0  0  0  0  0999 V2000
   -7.7129    4.2099   27.0854 C   0  0  0  0  0  0  0  0  0  0  0  0
   -7.7814    5.1722   27.8972 C   0  0  0  0  0  0  0  0  0  0  0  0
   -8.8776    3.8408   26.3416 C   0  0  0  0  0  0  0  0  0  0  0  0
   -9.9844    4.6492   26.4743 C   0  0  0  0  0  0  0  0  0  0  0  0
   -8.8033    6.1375   27.8728 C   0  0  0  0  0  0  0  0  0  0  0  0
   -9.9554    5.8281   27.1736 C   0  0  0  0  0  0  0  0  0  0  0  0
   -8.8740    2.6184   25.5584 C   0  0  0  0  0  0  0  0  0  0  0  0
   -9.7481    2.4811   24.4970 C   0  0  0  0  0  0  0  0  0  0  0  0
   -9.7537    1.3389   23.7601 C   0  0  0  0  0  0  0  0  0  0  0  0
   -8.7872    0.3087   24.0451 C   0  0  0  0  0  0  0  0  0  0  0  0
   -7.9652    0.4384   25.1261 C   0  0  0  0  0  0  0  0  0  0  0  0
   -7.9663    1.5885   25.9116 C   0  0  0  0  0  0  0  0  0  0  0  0
  -10.6583    1.3930   22.6068 C   0  0  0  0  0  0  0  0  0  0  0  0
  -11.1074    0.7877   21.9001 C   0  0  0  0  0  0  0  0  0  0  0  0
  -11.9752    1.0494   20.7493 C   0  0  0  0  0  0  0  0  0  0  0  0
  -12.1526    2.3774   20.5045 C   0  0  0  0  0  0  0  0  0  0  0  0
  -11.5492    3.3377   21.2033 C   0  0  0  0  0  0  0  0  0  0  0  0
  -10.7362    3.0142   22.2930 C   0  0  0  0  0  0  0  0  0  0  0  0
   -6.6655    5.5938   28.6221 O   0  0  0  0  0  0  0  0  0  0  0  0
   -7.0309   -0.6523   25.4199 C   0  0  0  0  0  0  0  0  0  0  0  0
   -7.3427   -1.4123   26.1400 N   0  0  0  0  0  0  0  0  0  0  0  0
   -6.7519   -2.4412   26.5959 C   0  0  0  0  0  0  0  0  0  0  0  0
   -7.1671   -3.1995   27.7615 C   0  0  0  0  0  0  0  0  0  0  0  0
   -8.3817   -2.7716   28.2759 C   0  0  0  0  0  0  0  0  0  0  0  0
   -9.0932   -1.6480   27.9416 C   0  0  0  0  0  0  0  0  0  0  0  0
  3  7  1  0
  9 13  1  0
  2 19  1  0
 11 20  1  0
 20 21  1  0
 21 22  2  3
 22 23  1  0
 23 24  2  3
 24 25  1  0
 13 14  2  0
 14 15  1  0
 15 16  2  0
 16 17  1  0
 17 18  2  0
 18 13  1  0
  1  2  2  0
  2  5  1  0
  5  6  2  0
  6  4  1  0
  4  3  2  0
  3  1  1  0
  7  8  2  0
  8  9  1  0
  9 10  2  0
 10 11  1  0
 11 12  2  0
 12  7  1  0
M  END
$$$$
