No_5593-complexes_sdf/6BKW-FPZ/2024-09-17-14-21-01/
     RDKit          3D

 26 29  0  0  0  0  0  0  0  0999 V2000
   -7.7129    4.2099   27.0854 C   0  0  0  0  0  0  0  0  0  0  0  0
   -7.7814    5.1722   27.8972 C   0  0  0  0  0  0  0  0  0  0  0  0
   -8.8998    3.8713   26.3707 C   0  0  0  0  0  0  0  0  0  0  0  0
   -9.1401    2.5906   25.9433 C   0  0  0  0  0  0  0  0  0  0  0  0
   -8.7502    6.2483   27.7275 C   0  0  0  0  0  0  0  0  0  0  0  0
   -8.4757    1.5199   26.5917 C   0  0  0  0  0  0  0  0  0  0  0  0
   -8.6924    0.2031   26.1496 C   0  0  0  0  0  0  0  0  0  0  0  0
   -9.7074   -0.0021   25.2819 C   0  0  0  0  0  0  0  0  0  0  0  0
   -9.9391   -1.3426   24.9334 C   0  0  0  0  0  0  0  0  0  0  0  0
  -10.0766    2.1363   25.0136 C   0  0  0  0  0  0  0  0  0  0  0  0
  -10.3016    0.9300   24.5998 C   0  0  0  0  0  0  0  0  0  0  0  0
   -9.7429    5.0015   26.0948 C   0  0  0  0  0  0  0  0  0  0  0  0
   -9.6781    6.1413   26.8053 C   0  0  0  0  0  0  0  0  0  0  0  0
   -9.5681   -2.3852   25.5608 N   0  0  0  0  0  0  0  0  0  0  0  0
   -9.1194   -2.3512   26.6747 C   0  0  0  0  0  0  0  0  0  0  0  0
   -8.3710   -1.0488   27.0491 C   0  0  2  0  0  0  0  0  0  0  0  0
  -10.6964   -1.4538   23.8246 O   0  0  0  0  0  0  0  0  0  0  0  0
   -7.8845   -0.7151   28.4933 C   0  0  0  0  0  0  0  0  0  0  0  0
   -6.7374    5.5254   28.7610 O   0  0  0  0  0  0  0  0  0  0  0  0
   -6.6695   -1.5236   28.7302 C   0  0  0  0  0  0  0  0  0  0  0  0
   -6.5515   -2.0673   29.9114 C   0  0  0  0  0  0  0  0  0  0  0  0
   -7.5822   -2.0714   30.8833 C   0  0  0  0  0  0  0  0  0  0  0  0
   -7.3889   -2.5222   32.1991 C   0  0  0  0  0  0  0  0  0  0  0  0
   -6.0713   -2.8608   32.5559 C   0  0  0  0  0  0  0  0  0  0  0  0
   -5.0215   -2.8354   31.6989 C   0  0  0  0  0  0  0  0  0  0  0  0
   -5.2232   -2.3783   30.3735 C   0  0  0  0  0  0  0  0  0  0  0  0
  3  4  1  0
  8  9  1  0
  9 14  1  0
 14 15  1  0
  7 16  1  0
 15 16  1  0
  9 17  2  0
 16 18  1  1
  2 19  1  0
 18 20  1  0
 20 21  1  0
  4  6  2  0
  6  7  1  0
  7  8  2  0
  8 11  1  0
 11 10  2  0
 10  4  1  0
 21 22  2  0
 22 23  1  0
 23 24  2  0
 24 25  1  0
 25 26  2  0
 26 21  1  0
  1  2  2  0
  2  5  1  0
  5 13  2  0
 13 12  1  0
 12  3  2  0
  3  1  1  0
M  END
$$$$
