No_5510-complexes_sdf/6BKW-FPZ/2024-09-17-14-21-01/
     RDKit          3D

 29 32  0  0  0  0  0  0  0  0999 V2000
   -7.7129    4.2099   27.0854 C   0  0  0  0  0  0  0  0  0  0  0  0
   -8.2112    3.0637   26.9225 C   0  0  0  0  0  0  0  0  0  0  0  0
   -8.4224    5.2106   27.8516 C   0  0  0  0  0  0  0  0  0  0  0  0
   -7.4917    1.9381   26.3986 C   0  0  0  0  0  0  0  0  0  0  0  0
   -9.7695    5.0306   28.1322 C   0  0  0  0  0  0  0  0  0  0  0  0
   -9.5975    2.7583   27.3362 C   0  0  0  0  0  0  0  0  0  0  0  0
  -10.3362    3.8114   27.9177 C   0  0  0  0  0  0  0  0  0  0  0  0
   -6.6378    1.2797   27.4398 C   0  0  0  0  0  0  0  0  0  0  0  0
   -6.0278    0.0761   27.1735 C   0  0  0  0  0  0  0  0  0  0  0  0
   -6.5425   -0.6910   26.1832 C   0  0  0  0  0  0  0  0  0  0  0  0
   -8.3098    0.7700   25.8294 C   0  0  0  0  0  0  0  0  0  0  0  0
   -7.5569   -0.2908   25.3169 C   0  0  0  0  0  0  0  0  0  0  0  0
  -11.6688    3.3463   28.3677 C   0  0  0  0  0  0  0  0  0  0  0  0
  -12.5999    3.3399   27.5548 C   0  0  0  0  0  0  0  0  0  0  0  0
  -13.9451    2.9196   27.9524 C   0  0  0  0  0  0  0  0  0  0  0  0
   -4.8746   -0.3299   28.0226 C   0  0  0  0  0  0  0  0  0  0  0  0
   -5.1615   -0.7477   29.2180 N   0  0  0  0  0  0  0  0  0  0  0  0
   -4.3106   -0.5634   30.2742 C   0  0  2  0  0  0  0  0  0  0  0  0
   -4.7462   -0.8311   31.6192 C   0  0  0  0  0  0  0  0  0  0  0  0
   -5.9547   -1.5123   31.7681 C   0  0  0  0  0  0  0  0  0  0  0  0
   -6.6939   -1.8509   30.6780 C   0  0  0  0  0  0  0  0  0  0  0  0
   -6.3479   -1.4385   29.4323 C   0  0  0  0  0  0  0  0  0  0  0  0
   -2.8916    0.4392   30.0105 P   0  0  0  0  0  0  0  0  0  0  0  0
   -3.0552    1.0595   28.8711 O   0  0  0  0  0  0  0  0  0  0  0  0
   -2.0000   -0.8538   29.9835 O   0  0  0  0  0  0  0  0  0  0  0  0
   -2.6846    1.1606   31.2352 O   0  0  0  0  0  0  0  0  0  0  0  0
  -14.1783    2.6378   29.2797 C   0  0  0  0  0  0  0  0  0  0  0  0
  -13.1531    2.7359   30.2153 C   0  0  0  0  0  0  0  0  0  0  0  0
  -11.8973    3.1150   29.8109 C   0  0  0  0  0  0  0  0  0  0  0  0
  2  4  1  0
  7 13  1  0
  9 16  1  0
 16 17  1  0
 17 18  1  0
 19 20  1  0
 17 22  1  0
 21 22  1  0
 18 23  1  1
 23 24  2  0
 23 25  1  0
 23 26  1  0
 18 19  1  0
 20 21  1  0
  4  8  2  0
  8  9  1  0
  9 10  2  0
 10 12  1  0
 12 11  2  0
 11  4  1  0
  1  2  2  0
  2  6  1  0
  6  7  2  0
  7  5  1  0
  5  3  2  0
  3  1  1  0
 13 14  2  0
 14 15  1  0
 15 27  2  0
 27 28  1  0
 28 29  2  0
 29 13  1  0
M  END
$$$$
