No_584-complexes_sdf/6BKW-FPZ/2024-09-17-14-21-01/
     RDKit          3D

 18 18  0  0  0  0  0  0  0  0999 V2000
   -7.2496    3.8871   27.4508 C   0  0  0  0  0  0  0  0  0  0  0  0
   -8.5096    4.0291   27.2770 C   0  0  0  0  0  0  0  0  0  0  0  0
   -9.2677    5.1714   27.5773 C   0  0  0  0  0  0  0  0  0  0  0  0
   -9.3517    2.7730   27.3663 C   0  0  0  0  0  0  0  0  0  0  0  0
   -8.7152    1.6342   27.3099 C   0  0  0  0  0  0  0  0  0  0  0  0
   -6.5289    2.6643   27.4771 C   0  0  0  0  0  0  0  0  0  0  0  0
   -7.2583    1.5486   27.3728 C   0  0  0  0  0  0  0  0  0  0  0  0
   -9.1870    6.1093   26.6539 C   0  0  0  0  0  0  0  0  0  0  0  0
   -9.3671    5.8417   25.3323 C   0  0  0  0  0  0  0  0  0  0  0  0
   -6.4327    0.3079   27.3048 C   0  0  0  0  0  0  0  0  0  0  0  0
   -6.6725   -0.6079   26.5362 N   0  0  0  0  0  0  0  0  0  0  0  0
   -7.1632   -0.6492   25.5175 C   0  0  0  0  0  0  0  0  0  0  0  0
   -8.1593   -0.2384   25.0593 C   0  0  0  0  0  0  0  0  0  0  0  0
   -8.6501   -0.2017   23.6685 C   0  0  0  0  0  0  0  0  0  0  0  0
   -9.8129    0.4562   23.2098 C   0  0  0  0  0  0  0  0  0  0  0  0
  -10.1459    0.4033   21.8758 C   0  0  0  0  0  0  0  0  0  0  0  0
   -9.3975   -0.4457   21.0139 C   0  0  0  0  0  0  0  0  0  0  0  0
   -8.2944   -1.1272   21.4719 C   0  0  0  0  0  0  0  0  0  0  0  0
  2  3  1  0
  3  8  1  0
  8  9  1  0
  7 10  1  0
 10 11  1  0
 11 12  1  0
 12 13  2  3
 13 14  1  0
 14 15  2  3
 15 16  1  0
 16 17  2  3
 17 18  1  0
  1  2  2  0
  2  4  1  0
  4  5  2  0
  5  7  1  0
  7  6  2  0
  6  1  1  0
M  END
$$$$
