No_5820-complexes_sdf/6BKW-FPZ/2024-09-17-14-21-01/
     RDKit          3D

 32 36  0  0  0  0  0  0  0  0999 V2000
   -7.9040    3.9820   27.1177 C   0  0  0  0  0  0  0  0  0  0  0  0
   -7.8663    4.8694   27.9238 C   0  0  0  0  0  0  0  0  0  0  0  0
   -9.0491    3.8523   26.2542 C   0  0  0  0  0  0  0  0  0  0  0  0
   -9.4067    2.6808   25.6532 C   0  0  0  0  0  0  0  0  0  0  0  0
   -8.5275    6.1191   27.7061 C   0  0  0  0  0  0  0  0  0  0  0  0
  -10.3221    2.7328   24.5970 C   0  0  0  0  0  0  0  0  0  0  0  0
  -10.8248    4.0079   24.2320 C   0  0  0  0  0  0  0  0  0  0  0  0
  -10.3271    5.1638   24.8387 C   0  0  0  0  0  0  0  0  0  0  0  0
   -9.3795    5.1413   25.7597 C   0  0  0  0  0  0  0  0  0  0  0  0
   -9.2626    6.2968   26.5932 C   0  0  0  0  0  0  0  0  0  0  0  0
   -7.2312    2.6907   27.7584 C   0  0  0  0  0  0  0  0  0  0  0  0
   -6.5253    1.8829   26.9246 C   0  0  0  0  0  0  0  0  0  0  0  0
   -5.7987    0.8120   27.5609 C   0  0  0  0  0  0  0  0  0  0  0  0
   -4.3786    1.1709   28.1011 C   0  0  0  0  0  0  0  0  0  0  0  0
   -3.6430    0.1894   28.7462 C   0  0  0  0  0  0  0  0  0  0  0  0
   -4.1619   -1.0391   29.0988 C   0  0  0  0  0  0  0  0  0  0  0  0
   -5.4704   -1.3266   28.5975 C   0  0  0  0  0  0  0  0  0  0  0  0
   -6.2426   -0.3966   27.8953 C   0  0  0  0  0  0  0  0  0  0  0  0
   -3.3978   -2.0115   29.8435 C   0  0  2  0  0  0  0  0  0  0  0  0
   -3.5702   -2.2010   31.0247 C   0  0  2  0  0  0  0  0  0  0  0  0
   -4.7076   -1.4681   31.9062 Cl  0  0  0  0  0  0  0  0  0  0  0  0
   -2.4068   -2.6357   29.0559 C   0  0  0  0  0  0  0  0  0  0  0  0
   -2.3274   -2.0029   31.9070 C   0  0  0  0  0  0  0  0  0  0  0  0
   -1.4085   -3.1289   31.5904 N   0  0  0  0  0  0  0  0  0  0  0  0
   -1.1315   -3.1277   30.1472 C   0  0  0  0  0  0  0  0  0  0  0  0
   -1.9750   -4.4039   31.9289 C   0  0  0  0  0  0  0  0  0  0  0  0
   -7.5860   -0.7592   27.5406 C   0  0  0  0  0  0  0  0  0  0  0  0
   -8.1326   -0.7774   26.6015 C   0  0  0  0  0  0  0  0  0  0  0  0
   -9.4927   -1.1489   26.3681 C   0  0  0  0  0  0  0  0  0  0  0  0
  -10.2681   -1.4269   27.4614 C   0  0  0  0  0  0  0  0  0  0  0  0
   -9.6618   -1.4437   28.7325 C   0  0  0  0  0  0  0  0  0  0  0  0
   -8.3491   -1.1561   28.8284 C   0  0  0  0  0  0  0  0  0  0  0  0
  1 11  1  0
 11 12  1  0
 12 13  1  0
 19 16  1  1
 19 20  1  0
 20 21  1  1
 19 22  1  0
 20 23  1  0
 23 24  1  0
 22 25  1  0
 24 25  1  0
 24 26  1  0
 18 27  1  0
  3  4  2  0
  4  6  1  0
  6  7  2  0
  7  8  1  0
  8  9  2  0
  1  2  2  0
  2  5  1  0
  5 10  2  0
 10  9  1  0
  9  3  1  0
  3  1  1  0
 27 28  2  0
 28 29  1  0
 29 30  2  0
 30 31  1  0
 31 32  2  0
 32 27  1  0
 13 14  2  0
 14 15  1  0
 15 16  2  0
 16 17  1  0
 17 18  2  0
 18 13  1  0
M  END
$$$$
