No_5851-complexes_sdf/6BKW-FPZ/2024-09-17-14-21-01/
     RDKit          3D

 34 37  0  0  0  0  0  0  0  0999 V2000
   -7.9040    3.9820   27.1177 C   0  0  0  0  0  0  0  0  0  0  0  0
   -8.2057    2.8231   26.8733 C   0  0  0  0  0  0  0  0  0  0  0  0
   -7.4766    1.7477   27.4593 C   0  0  0  0  0  0  0  0  0  0  0  0
   -8.7468    5.1251   26.6967 C   0  0  0  0  0  0  0  0  0  0  0  0
   -9.7234    4.8589   25.8202 C   0  0  0  0  0  0  0  0  0  0  0  0
   -9.9711    3.5858   25.4266 C   0  0  0  0  0  0  0  0  0  0  0  0
   -9.2266    2.4957   25.9600 C   0  0  0  0  0  0  0  0  0  0  0  0
   -6.2339    1.9237   27.9258 N   0  0  0  0  0  0  0  0  0  0  0  0
   -5.4699    0.8281   28.3430 C   0  0  0  0  0  0  0  0  0  0  0  0
   -5.9981   -0.3900   28.2346 C   0  0  0  0  0  0  0  0  0  0  0  0
   -7.8004    0.4390   27.3701 N   0  0  0  0  0  0  0  0  0  0  0  0
   -7.1966   -0.5736   27.8166 C   0  0  0  0  0  0  0  0  0  0  0  0
   -4.1795    1.1674   28.8255 N   0  0  0  0  0  0  0  0  0  0  0  0
   -8.4175    6.5108   27.1113 C   0  0  0  0  0  0  0  0  0  0  0  0
   -8.4194    7.9339   26.4617 Cl  0  0  0  0  0  0  0  0  0  0  0  0
  -10.9982    3.3084   24.4097 C   0  0  0  0  0  0  0  0  0  0  0  0
  -12.2705    3.0342   24.7961 C   0  0  2  0  0  0  0  0  0  0  0  0
  -12.6553    2.6771   25.7993 C   0  0  1  0  0  0  0  0  0  0  0  0
  -13.3617    2.6236   26.5454 C   0  0  0  0  0  0  0  0  0  0  0  0
  -14.1035    3.5810   27.2331 C   0  0  0  0  0  0  0  0  0  0  0  0
  -13.9430    4.2828   27.9577 C   0  0  0  0  0  0  0  0  0  0  0  0
  -12.6287    4.1857   28.7655 C   0  0  0  0  0  0  0  0  0  0  0  0
  -11.8082    3.0917   28.6813 C   0  0  0  0  0  0  0  0  0  0  0  0
  -11.9859    2.2431   27.5785 C   0  0  0  0  0  0  0  0  0  0  0  0
  -12.0685    1.3365   25.5341 N   0  0  0  0  0  0  0  0  0  0  0  0
  -12.0828    0.9474   24.2461 C   0  0  0  0  0  0  0  0  0  0  0  0
  -11.2412    1.4166   26.7616 C   0  0  0  0  0  0  0  0  0  0  0  0
  -13.1087    2.4862   23.6907 C   0  0  2  0  0  0  0  0  0  0  0  0
  -13.6406    3.4905   22.8208 C   0  0  0  0  0  0  0  0  0  0  0  0
  -13.5559    1.2888   23.4748 C   0  0  0  0  0  0  0  0  0  0  0  0
  -14.6234    0.8108   24.2749 C   0  0  0  0  0  0  0  0  0  0  0  0
  -12.0118   -0.6494   24.3875 C   0  0  0  0  0  0  0  0  0  0  0  0
  -10.9398    1.1685   23.2799 C   0  0  0  0  0  0  0  0  0  0  0  0
  -13.5942    0.8048   22.1046 C   0  0  0  0  0  0  0  0  0  0  0  0
  2  3  1  0
  9 13  1  0
  4 14  1  0
 14 15  1  0
  6 16  1  0
 17 16  1  6
 17 18  1  0
 18 25  1  6
 25 26  1  0
 24 27  1  0
 25 27  1  0
 17 28  1  0
 28 29  1  1
 28 30  1  0
 30 31  1  0
 26 32  1  0
 26 33  1  0
 30 34  1  0
 18 19  1  0
  3  8  2  0
  8  9  1  0
  9 10  2  0
 10 12  1  0
 12 11  2  0
 11  3  1  0
  1  2  2  0
  2  7  1  0
  7  6  2  0
  6  5  1  0
  5  4  2  0
  4  1  1  0
 19 20  2  0
 20 21  1  0
 21 22  2  0
 22 23  1  0
 23 24  2  0
 24 19  1  0
M  END
$$$$
