No_5818-complexes_sdf/6BKW-FPZ/2024-09-17-14-21-01/
     RDKit          3D

 40 42  0  0  0  0  0  0  0  0999 V2000
   -7.9040    3.9820   27.1177 C   0  0  0  0  0  0  0  0  0  0  0  0
   -8.2057    2.8231   26.8733 C   0  0  0  0  0  0  0  0  0  0  0  0
   -7.4766    1.7477   27.4593 C   0  0  0  0  0  0  0  0  0  0  0  0
   -8.7468    5.1251   26.6967 C   0  0  0  0  0  0  0  0  0  0  0  0
   -9.7234    4.8589   25.8202 C   0  0  0  0  0  0  0  0  0  0  0  0
   -9.9711    3.5858   25.4266 C   0  0  0  0  0  0  0  0  0  0  0  0
   -9.2266    2.4957   25.9600 C   0  0  0  0  0  0  0  0  0  0  0  0
   -6.6635    0.9000   26.7532 C   0  0  0  0  0  0  0  0  0  0  0  0
   -5.7321    0.1432   27.5393 C   0  0  0  0  0  0  0  0  0  0  0  0
   -4.8376    0.0601   28.0372 C   0  0  0  0  0  0  0  0  0  0  0  0
   -3.7733   -0.1659   28.8813 C   0  0  0  0  0  0  0  0  0  0  0  0
   -3.3959   -0.7513   29.8555 C   0  0  0  0  0  0  0  0  0  0  0  0
   -4.3152   -1.3136   30.7590 C   0  0  0  0  0  0  0  0  0  0  0  0
   -5.6201   -1.2912   30.5429 C   0  0  0  0  0  0  0  0  0  0  0  0
   -6.4770   -1.9041   31.5536 C   0  0  0  0  0  0  0  0  0  0  0  0
   -5.9077   -2.3678   32.7428 C   0  0  0  0  0  0  0  0  0  0  0  0
   -4.5714   -2.3628   32.9838 C   0  0  0  0  0  0  0  0  0  0  0  0
   -3.7413   -1.8306   32.0679 C   0  0  0  0  0  0  0  0  0  0  0  0
   -8.4275    6.5242   27.0859 C   0  0  0  0  0  0  0  0  0  0  0  0
   -8.1699    6.7618   28.2605 O   0  0  0  0  0  0  0  0  0  0  0  0
   -8.5775    7.4888   26.2442 O   0  0  0  0  0  0  0  0  0  0  0  0
   -2.6133    0.2768   28.0247 N   0  0  0  0  0  0  0  0  0  0  0  0
   -2.3437   -0.1482   26.8299 C   0  0  0  0  0  0  0  0  0  0  0  0
  -11.0026    3.3154   24.4155 C   0  0  0  0  0  0  0  0  0  0  0  0
  -10.7189    2.7246   23.3382 C   0  0  0  0  0  0  0  0  0  0  0  0
  -11.6526    2.5059   22.2638 C   0  0  0  0  0  0  0  0  0  0  0  0
  -12.8702    3.1492   22.3216 C   0  0  0  0  0  0  0  0  0  0  0  0
  -12.2357    4.0643   24.4409 C   0  0  0  0  0  0  0  0  0  0  0  0
  -13.1213    3.9564   23.4970 C   0  0  0  0  0  0  0  0  0  0  0  0
   -2.9909   -0.8485   26.2591 C   0  0  0  0  0  0  0  0  0  0  0  0
   -4.2141   -0.6410   25.3384 Cl  0  0  0  0  0  0  0  0  0  0  0  0
   -2.6020   -2.3434   26.3380 C   0  0  0  0  0  0  0  0  0  0  0  0
   -3.0773   -3.1449   25.4089 C   0  0  0  0  0  0  0  0  0  0  0  0
   -3.7217   -4.2318   25.9768 C   0  0  0  0  0  0  0  0  0  0  0  0
   -4.6985   -4.8603   25.2538 C   0  0  0  0  0  0  0  0  0  0  0  0
   -5.5599   -4.3256   24.8190 C   0  0  0  0  0  0  0  0  0  0  0  0
   -6.6863   -4.6164   24.4780 C   0  0  0  0  0  0  0  0  0  0  0  0
   -4.6226   -6.3248   25.0637 C   0  0  0  0  0  0  0  0  0  0  0  0
   -3.6595   -7.1505   25.6401 C   0  0  0  0  0  0  0  0  0  0  0  0
   -6.7343   -6.0304   24.1424 C   0  0  0  0  0  0  0  0  0  0  0  0
  2  3  1  0
  3  8  1  0
  8  9  2  3
  9 10  1  0
 10 11  1  0
 11 12  2  3
 12 13  1  0
  4 19  1  0
 19 20  2  0
 19 21  1  0
 11 22  1  0
 22 23  1  0
  6 24  1  0
 23 30  1  0
 30 31  1  0
 30 32  1  0
 32 33  1  0
 33 34  1  0
 34 35  1  0
 35 36  1  0
 36 37  2  3
 35 38  1  0
 38 39  1  0
 37 40  1  0
 13 14  2  0
 14 15  1  0
 15 16  2  0
 16 17  1  0
 17 18  2  0
 18 13  1  0
  1  2  2  0
  2  7  1  0
  7  6  2  0
  6  5  1  0
  5  4  2  0
  4  1  1  0
 24 25  2  0
 25 26  1  0
 26 27  2  0
 27 29  1  0
 29 28  2  0
 28 24  1  0
M  END
$$$$
