No_5976-complexes_sdf/6BKW-FPZ/2024-09-17-14-21-01/
     RDKit          3D

 22 24  0  0  0  0  0  0  0  0999 V2000
   -7.7129    4.2099   27.0854 C   0  0  0  0  0  0  0  0  0  0  0  0
   -7.7814    5.1722   27.8972 C   0  0  0  0  0  0  0  0  0  0  0  0
   -8.8998    3.8713   26.3707 C   0  0  0  0  0  0  0  0  0  0  0  0
   -9.9938    4.6774   26.5446 C   0  0  0  0  0  0  0  0  0  0  0  0
   -8.7789    6.1536   27.9256 C   0  0  0  0  0  0  0  0  0  0  0  0
   -9.9428    5.8398   27.2296 C   0  0  0  0  0  0  0  0  0  0  0  0
   -8.9119    2.6447   25.5685 C   0  0  0  0  0  0  0  0  0  0  0  0
   -9.7965    2.5353   24.5160 C   0  0  0  0  0  0  0  0  0  0  0  0
   -9.7187    1.4645   23.6430 C   0  0  0  0  0  0  0  0  0  0  0  0
   -8.7915    0.4047   23.9234 C   0  0  0  0  0  0  0  0  0  0  0  0
   -7.9851    0.4755   25.0431 C   0  0  0  0  0  0  0  0  0  0  0  0
   -7.9890    1.6174   25.8659 C   0  0  0  0  0  0  0  0  0  0  0  0
  -10.5663    1.3518   22.4636 C   0  0  0  0  0  0  0  0  0  0  0  0
  -11.8816    1.1361   22.7067 C   0  0  0  0  0  0  0  0  0  0  0  0
  -12.7478    1.1386   21.6750 C   0  0  0  0  0  0  0  0  0  0  0  0
  -12.2664    1.2933   20.3305 C   0  0  0  0  0  0  0  0  0  0  0  0
  -10.9380    1.5320   20.0760 C   0  0  0  0  0  0  0  0  0  0  0  0
  -10.0117    1.6065   21.1633 C   0  0  0  0  0  0  0  0  0  0  0  0
   -7.0034   -0.5599   25.3287 C   0  0  0  0  0  0  0  0  0  0  0  0
   -6.1975   -0.4799   26.1117 O   0  0  0  0  0  0  0  0  0  0  0  0
   -6.7638   -1.3747   24.2846 O   0  0  0  0  0  0  0  0  0  0  0  0
   -6.6173    5.5948   28.5864 O   0  0  0  0  0  0  0  0  0  0  0  0
  3  7  1  0
  9 13  1  0
 11 19  1  0
 19 20  1  0
 19 21  2  0
  2 22  1  0
 13 14  2  0
 14 15  1  0
 15 16  2  0
 16 17  1  0
 17 18  2  0
 18 13  1  0
  1  2  2  0
  2  5  1  0
  5  6  2  0
  6  4  1  0
  4  3  2  0
  3  1  1  0
  7  8  2  0
  8  9  1  0
  9 10  2  0
 10 11  1  0
 11 12  2  0
 12  7  1  0
M  END
$$$$
