No_5596-complexes_sdf/6BKW-FPZ/2024-09-17-14-21-01/
     RDKit          3D

 40 43  0  0  0  0  0  0  0  0999 V2000
   -7.9040    3.9820   27.1177 C   0  0  0  0  0  0  0  0  0  0  0  0
   -9.0711    4.3164   27.0630 C   0  0  0  0  0  0  0  0  0  0  0  0
   -9.5294    5.4517   27.7215 C   0  0  0  0  0  0  0  0  0  0  0  0
   -6.9328    4.7309   27.8881 C   0  0  0  0  0  0  0  0  0  0  0  0
   -7.3666    5.8455   28.5488 C   0  0  0  0  0  0  0  0  0  0  0  0
   -8.6669    6.2428   28.4199 C   0  0  0  0  0  0  0  0  0  0  0  0
   -9.8911    3.3806   26.1705 C   0  0  1  0  0  0  0  0  0  0  0  0
  -10.8248    2.6433   26.8182 C   0  0  0  0  0  0  0  0  0  0  0  0
  -11.6598    1.7111   26.1421 C   0  0  0  0  0  0  0  0  0  0  0  0
  -12.5102    0.8397   26.8361 C   0  0  0  0  0  0  0  0  0  0  0  0
  -12.5443    0.8909   28.2846 C   0  0  0  0  0  0  0  0  0  0  0  0
  -11.7539    1.7762   28.9562 C   0  0  0  0  0  0  0  0  0  0  0  0
  -10.8902    2.6251   28.3313 C   0  0  0  0  0  0  0  0  0  0  0  0
   -9.8939    3.5767   24.8279 C   0  0  0  0  0  0  0  0  0  0  0  0
   -9.9096    2.5820   24.0417 N   0  0  0  0  0  0  0  0  0  0  0  0
  -10.0360    2.7505   22.6723 C   0  0  0  0  0  0  0  0  0  0  0  0
   -9.7479    4.7601   24.4296 F   0  0  0  0  0  0  0  0  0  0  0  0
   -9.8202    1.5634   21.8532 C   0  0  0  0  0  0  0  0  0  0  0  0
  -10.6123    0.5297   22.1256 C   0  0  0  0  0  0  0  0  0  0  0  0
  -10.3770   -0.6819   21.3072 C   0  0  0  0  0  0  0  0  0  0  0  0
   -9.3019   -0.7528   20.5679 C   0  0  0  0  0  0  0  0  0  0  0  0
   -8.3508    0.2613   20.5786 C   0  0  0  0  0  0  0  0  0  0  0  0
   -8.5763    1.4341   21.3372 C   0  0  0  0  0  0  0  0  0  0  0  0
   -8.8593   -2.1926   19.6873 S   0  0  0  0  0  0  0  0  0  0  0  0
   -9.1946   -1.9624   18.4203 O   0  0  0  0  0  0  0  0  0  0  0  0
   -9.6151   -3.3667   20.2663 O   0  0  0  0  0  0  0  0  0  0  0  0
   -7.3478   -2.5248   19.8779 N   0  0  0  0  0  0  0  0  0  0  0  0
  -13.4725   -0.0191   28.9522 C   0  0  0  0  0  0  0  0  0  0  0  0
  -14.4394    0.2516   29.4446 O   0  0  0  0  0  0  0  0  0  0  0  0
  -12.9655   -1.2973   28.9799 O   0  0  0  0  0  0  0  0  0  0  0  0
  -12.0240   -1.7405   28.4728 C   0  0  0  0  0  0  0  0  0  0  0  0
  -11.6256   -3.0901   28.7568 C   0  0  0  0  0  0  0  0  0  0  0  0
  -12.1955   -3.7673   29.6136 C   0  0  0  0  0  0  0  0  0  0  0  0
  -11.8263   -5.1398   29.9687 C   0  0  0  0  0  0  0  0  0  0  0  0
  -10.7590   -5.6547   29.2872 C   0  0  0  0  0  0  0  0  0  0  0  0
  -10.0811   -4.9474   28.3419 C   0  0  0  0  0  0  0  0  0  0  0  0
  -10.4152   -3.6154   28.0739 C   0  0  0  0  0  0  0  0  0  0  0  0
  -10.3874   -6.9068   29.5775 F   0  0  0  0  0  0  0  0  0  0  0  0
  -10.0405    3.8662   22.1146 O   0  0  0  0  0  0  0  0  0  0  0  0
   -5.6767    4.2765   28.0773 O   0  0  0  0  0  0  0  0  0  0  0  0
  7  2  1  1
  7 14  1  0
 14 15  2  3
 15 16  1  0
 14 17  1  0
 16 18  1  0
 21 24  1  0
 24 25  2  0
 24 26  2  0
 24 27  1  0
 11 28  1  0
 28 29  2  0
 28 30  1  0
 30 31  1  0
 35 38  1  0
 16 39  2  0
  4 40  1  0
  7  8  1  0
 31 32  1  0
 18 19  2  0
 19 20  1  0
 20 21  2  0
 21 22  1  0
 22 23  2  0
 23 18  1  0
 32 33  2  0
 33 34  1  0
 34 35  2  0
 35 36  1  0
 36 37  2  0
 37 32  1  0
  1  2  2  0
  2  3  1  0
  3  6  2  0
  6  5  1  0
  5  4  2  0
  4  1  1  0
  8  9  2  0
  9 10  1  0
 10 11  2  0
 11 12  1  0
 12 13  2  0
 13  8  1  0
M  END
$$$$
