No_5615-complexes_sdf/6BKW-FPZ/2024-09-17-14-21-01/
     RDKit          3D

 24 26  0  0  0  0  0  0  0  0999 V2000
   -7.9040    3.9820   27.1177 C   0  0  0  0  0  0  0  0  0  0  0  0
   -8.2057    2.8231   26.8733 C   0  0  0  0  0  0  0  0  0  0  0  0
   -8.7463    4.9537   27.6708 C   0  0  0  0  0  0  0  0  0  0  0  0
  -10.0901    4.5164   28.0293 C   0  0  0  0  0  0  0  0  0  0  0  0
   -9.5729    2.3483   27.2382 C   0  0  0  0  0  0  0  0  0  0  0  0
  -10.4170    3.2421   27.8237 C   0  0  0  0  0  0  0  0  0  0  0  0
   -8.2984    6.3439   27.8789 C   0  0  0  0  0  0  0  0  0  0  0  0
   -9.8553    0.9095   27.0177 C   0  0  0  0  0  0  0  0  0  0  0  0
  -10.7928    0.4226   27.8400 C   0  0  0  0  0  0  0  0  0  0  0  0
  -11.1364   -0.9494   27.7168 C   0  0  0  0  0  0  0  0  0  0  0  0
  -10.4137   -1.7229   26.8760 C   0  0  0  0  0  0  0  0  0  0  0  0
   -9.1814    0.0109   26.3120 C   0  0  0  0  0  0  0  0  0  0  0  0
   -9.4294   -1.2428   26.1682 C   0  0  0  0  0  0  0  0  0  0  0  0
   -8.9123    7.2161   26.7900 C   0  0  0  0  0  0  0  0  0  0  0  0
   -8.6487   -2.1058   25.2253 C   0  0  0  0  0  0  0  0  0  0  0  0
   -8.0452   -2.0086   24.3874 C   0  0  0  0  0  0  0  0  0  0  0  0
   -7.7572   -0.5738   23.8691 C   0  0  0  0  0  0  0  0  0  0  0  0
   -8.3891    0.0879   23.4212 C   0  0  0  0  0  0  0  0  0  0  0  0
   -9.7451   -0.0441   23.0269 C   0  0  0  0  0  0  0  0  0  0  0  0
  -10.5134    1.0606   22.4620 C   0  0  0  0  0  0  0  0  0  0  0  0
  -11.7874    0.9157   22.1705 C   0  0  0  0  0  0  0  0  0  0  0  0
  -12.3975   -0.3555   22.4064 C   0  0  0  0  0  0  0  0  0  0  0  0
  -11.7252   -1.3915   22.9744 C   0  0  0  0  0  0  0  0  0  0  0  0
  -10.4517   -1.2214   23.2931 C   0  0  0  0  0  0  0  0  0  0  0  0
  3  7  1  0
  5  8  1  0
  7 14  1  0
 13 15  1  0
 15 16  2  3
 16 17  1  0
 17 18  2  3
 18 19  1  0
  1  2  2  0
  2  5  1  0
  5  6  2  0
  6  4  1  0
  4  3  2  0
  3  1  1  0
 19 20  2  0
 20 21  1  0
 21 22  2  0
 22 23  1  0
 23 24  2  0
 24 19  1  0
  8  9  2  0
  9 10  1  0
 10 11  2  0
 11 13  1  0
 13 12  2  0
 12  8  1  0
M  END
$$$$
