No_5010-complexes_sdf/6BKW-FPZ/2024-09-17-14-21-01/
     RDKit          3D

 15 16  0  0  0  0  0  0  0  0999 V2000
   -7.9040    3.9820   27.1177 C   0  0  0  0  0  0  0  0  0  0  0  0
   -9.0711    4.3164   27.0630 C   0  0  1  0  0  0  0  0  0  0  0  0
   -9.8698    3.9665   25.9495 C   0  0  0  0  0  0  0  0  0  0  0  0
   -6.9515    4.6878   28.0207 C   0  0  0  0  0  0  0  0  0  0  0  0
  -11.1591    3.4833   26.0876 C   0  0  1  0  0  0  0  0  0  0  0  0
  -11.9402    3.9417   27.0995 C   0  0  0  0  0  0  0  0  0  0  0  0
  -11.2245    4.2482   28.3724 C   0  0  0  0  0  0  0  0  0  0  0  0
   -9.8678    4.0881   28.1894 C   0  0  0  0  0  0  0  0  0  0  0  0
   -5.7489    4.1176   28.4390 C   0  0  0  0  0  0  0  0  0  0  0  0
   -5.3662    2.8574   27.8130 C   0  0  0  0  0  0  0  0  0  0  0  0
   -6.3413    2.0349   27.2500 C   0  0  0  0  0  0  0  0  0  0  0  0
   -7.5371    2.5940   26.9314 C   0  0  0  0  0  0  0  0  0  0  0  0
   -9.0074    5.9995   26.8932 C   0  0  0  0  0  0  0  0  0  0  0  0
  -11.9664    3.3196   24.7570 C   0  0  0  0  0  0  0  0  0  0  0  0
  -13.0668    3.3175   24.6933 C   0  0  0  0  0  0  0  0  0  0  0  0
  1  2  1  0
  2  3  1  0
  3  5  1  0
  5  6  1  0
  6  7  1  0
  2  8  1  0
  7  8  1  0
  2 13  1  6
  5 14  1  6
 14 15  2  0
  1  4  2  0
  4  9  1  0
  9 10  2  0
 10 11  1  0
 11 12  2  0
 12  1  1  0
M  END
$$$$
