No_552-complexes_sdf/6BKW-FPZ/2024-09-17-14-21-01/
     RDKit          3D

 20 22  0  0  0  0  0  0  0  0999 V2000
   -7.9040    3.9820   27.1177 C   0  0  0  0  0  0  0  0  0  0  0  0
   -7.8663    4.8694   27.9238 C   0  0  0  0  0  0  0  0  0  0  0  0
   -9.0501    3.8017   26.2617 C   0  0  0  0  0  0  0  0  0  0  0  0
   -9.1826    2.7026   25.3575 C   0  0  0  0  0  0  0  0  0  0  0  0
   -8.6940    6.0131   27.8614 C   0  0  0  0  0  0  0  0  0  0  0  0
  -10.1138    4.6733   26.4644 C   0  0  0  0  0  0  0  0  0  0  0  0
   -9.8579    5.8496   27.1764 C   0  0  0  0  0  0  0  0  0  0  0  0
  -10.1334    1.8452   25.6042 C   0  0  0  0  0  0  0  0  0  0  0  0
  -10.0859    0.7150   24.9178 C   0  0  0  0  0  0  0  0  0  0  0  0
  -10.6615   -0.4038   25.4348 C   0  0  0  0  0  0  0  0  0  0  0  0
  -11.1678   -0.2732   26.5510 C   0  0  0  0  0  0  0  0  0  0  0  0
  -11.2445    0.8386   27.4274 C   0  0  0  0  0  0  0  0  0  0  0  0
  -10.6023    1.8968   26.9629 C   0  0  0  0  0  0  0  0  0  0  0  0
   -9.4269    0.6405   23.5768 C   0  0  0  0  0  0  0  0  0  0  0  0
   -9.9332    0.1134   22.4519 C   0  0  0  0  0  0  0  0  0  0  0  0
   -9.1984    0.1565   21.2886 C   0  0  0  0  0  0  0  0  0  0  0  0
   -9.6914   -0.4775   20.1987 C   0  0  0  0  0  0  0  0  0  0  0  0
  -10.9130   -1.1993   20.2652 C   0  0  0  0  0  0  0  0  0  0  0  0
  -11.6028   -1.2397   21.4418 C   0  0  0  0  0  0  0  0  0  0  0  0
  -11.0887   -0.6233   22.5317 C   0  0  0  0  0  0  0  0  0  0  0  0
  3  4  1  0
  4  8  1  0
  9 14  1  0
 14 15  1  0
 15 16  2  0
 16 17  1  0
 17 18  2  0
 18 19  1  0
 19 20  2  0
 20 15  1  0
  8  9  1  0
  9 10  2  0
 10 11  1  0
 11 12  2  0
 12 13  1  0
 13  8  2  0
  1  2  2  0
  2  5  1  0
  5  7  2  0
  7  6  1  0
  6  3  2  0
  3  1  1  0
M  END
$$$$
