No_5373-complexes_sdf/6BKW-FPZ/2024-09-17-14-21-01/
     RDKit          3D

 20 22  0  0  0  0  0  0  0  0999 V2000
   -7.2496    3.8871   27.4508 C   0  0  0  0  0  0  0  0  0  0  0  0
   -7.9379    4.9063   27.8518 C   0  0  0  0  0  0  0  0  0  0  0  0
   -7.5112    6.1898   27.6280 C   0  0  0  0  0  0  0  0  0  0  0  0
   -7.8078    2.6331   27.2522 C   0  0  0  0  0  0  0  0  0  0  0  0
   -9.1846    2.4724   27.5426 C   0  0  0  0  0  0  0  0  0  0  0  0
   -9.9168    3.5155   28.0405 C   0  0  0  0  0  0  0  0  0  0  0  0
  -11.2899    3.3804   28.4254 C   0  0  0  0  0  0  0  0  0  0  0  0
   -9.3325    4.7781   28.2230 C   0  0  0  0  0  0  0  0  0  0  0  0
  -11.7911    2.1181   28.8240 C   0  0  0  0  0  0  0  0  0  0  0  0
  -13.1177    1.9470   29.2032 C   0  0  0  0  0  0  0  0  0  0  0  0
  -13.9332    3.0872   29.3294 C   0  0  0  0  0  0  0  0  0  0  0  0
  -13.4993    4.3245   28.9231 C   0  0  0  0  0  0  0  0  0  0  0  0
  -12.1862    4.4959   28.5006 C   0  0  0  0  0  0  0  0  0  0  0  0
   -7.0671    1.4344   26.8515 C   0  0  0  0  0  0  0  0  0  0  0  0
   -5.6309    1.1033   27.6002 Cl  0  0  0  0  0  0  0  0  0  0  0  0
   -7.6513    0.2124   26.5959 C   0  0  0  0  0  0  0  0  0  0  0  0
   -8.7146   -0.1204   26.5796 C   0  0  0  0  0  0  0  0  0  0  0  0
   -9.0695   -1.3081   25.9136 C   0  0  0  0  0  0  0  0  0  0  0  0
   -9.8174    1.1960   27.2386 C   0  0  0  0  0  0  0  0  0  0  0  0
   -8.1430   -1.8118   25.5844 C   0  0  0  0  0  0  0  0  0  0  0  0
  1  2  1  0
  2  3  2  0
  1  4  1  0
  5  6  1  0
  6  7  1  0
  2  8  1  0
  6  8  1  0
 14 15  1  0
 17 18  1  0
 18 20  2  0
  7  9  2  0
  9 10  1  0
 10 11  2  0
 11 12  1  0
 12 13  2  0
 13  7  1  0
  4  5  2  0
  5 19  1  0
 19 17  2  0
 17 16  1  0
 16 14  2  0
 14  4  1  0
M  END
$$$$
