No_5597-complexes_sdf/6BKW-FPZ/2024-09-17-14-21-01/
     RDKit          3D

 12 12  0  0  0  0  0  0  0  0999 V2000
   -7.9040    3.9820   27.1177 C   0  0  0  0  0  0  0  0  0  0  0  0
   -8.2057    2.8231   26.8733 C   0  0  0  0  0  0  0  0  0  0  0  0
   -8.7695    5.0740   26.7916 C   0  0  0  0  0  0  0  0  0  0  0  0
   -9.7106    4.8936   25.8755 C   0  0  0  0  0  0  0  0  0  0  0  0
   -9.2219    2.4558   25.9830 C   0  0  0  0  0  0  0  0  0  0  0  0
   -9.9766    3.5921   25.5076 C   0  0  0  0  0  0  0  0  0  0  0  0
   -8.3581    6.4853   27.1309 C   0  0  0  0  0  0  0  0  0  0  0  0
   -8.9846    7.4870   26.6578 N   0  0  0  0  0  0  0  0  0  0  0  0
   -7.4226    6.5711   28.1017 N   0  0  0  0  0  0  0  0  0  0  0  0
   -7.5629    1.5049   27.2772 C   0  0  0  0  0  0  0  0  0  0  0  0
   -8.0715    0.3101   27.1893 C   0  0  0  0  0  0  0  0  0  0  0  0
   -9.2011    0.2059   26.2942 C   0  0  0  0  0  0  0  0  0  0  0  0
  3  7  1  0
  7  8  2  0
  7  9  1  0
  2 10  1  0
 10 11  2  3
 11 12  1  0
  1  2  2  0
  2  5  1  0
  5  6  2  0
  6  4  1  0
  4  3  2  0
  3  1  1  0
M  END
$$$$
