No_5511-complexes_sdf/6BKW-FPZ/2024-09-17-14-21-01/
     RDKit          3D

 34 37  0  0  0  0  0  0  0  0999 V2000
   -7.7129    4.2099   27.0854 C   0  0  0  0  0  0  0  0  0  0  0  0
   -8.2112    3.0637   26.9225 C   0  0  0  0  0  0  0  0  0  0  0  0
   -7.5138    1.9223   27.4249 C   0  0  0  0  0  0  0  0  0  0  0  0
   -8.5309    5.4147   26.8151 C   0  0  0  0  0  0  0  0  0  0  0  0
   -9.6817    5.2393   26.1100 C   0  0  0  0  0  0  0  0  0  0  0  0
  -10.1032    3.9957   25.8534 C   0  0  0  0  0  0  0  0  0  0  0  0
   -9.4035    2.8430   26.2573 C   0  0  0  0  0  0  0  0  0  0  0  0
   -6.9207    1.3143   26.7617 F   0  0  0  0  0  0  0  0  0  0  0  0
   -7.9858    6.7606   27.0679 C   0  0  0  0  0  0  0  0  0  0  0  0
   -8.6503    7.8507   26.6995 N   0  0  0  0  0  0  0  0  0  0  0  0
   -7.1626    6.8562   28.1183 O   0  0  0  0  0  0  0  0  0  0  0  0
   -8.5057    1.0415   28.0819 F   0  0  0  0  0  0  0  0  0  0  0  0
   -6.5983    2.2771   28.4063 F   0  0  0  0  0  0  0  0  0  0  0  0
  -11.3252    3.7909   25.0337 C   0  0  2  0  0  0  0  0  0  0  0  0
  -11.2795    3.9398   23.6823 C   0  0  0  0  0  0  0  0  0  0  0  0
  -10.1087    4.0377   22.9729 C   0  0  0  0  0  0  0  0  0  0  0  0
  -10.0623    4.1383   21.5658 C   0  0  0  0  0  0  0  0  0  0  0  0
  -11.2747    4.2288   20.8371 C   0  0  0  0  0  0  0  0  0  0  0  0
  -12.4553    3.9496   22.9202 C   0  0  0  0  0  0  0  0  0  0  0  0
  -12.4495    4.1118   21.5222 C   0  0  0  0  0  0  0  0  0  0  0  0
  -12.4599    4.3945   25.7474 C   0  0  0  0  0  0  0  0  0  0  0  0
  -13.7211    3.6998   25.4675 C   0  0  0  0  0  0  0  0  0  0  0  0
  -14.3644    3.7788   24.2256 C   0  0  0  0  0  0  0  0  0  0  0  0
  -13.7410    3.9145   23.4504 C   0  0  0  0  0  0  0  0  0  0  0  0
  -15.7407    4.2474   24.1235 C   0  0  0  0  0  0  0  0  0  0  0  0
  -16.3440    3.9206   23.0734 O   0  0  0  0  0  0  0  0  0  0  0  0
  -16.4668    4.8391   25.1791 N   0  0  0  0  0  0  0  0  0  0  0  0
  -15.9003    5.2268   26.4387 C   0  0  0  0  0  0  0  0  0  0  0  0
  -15.7214    4.4315   27.3421 C   0  0  0  0  0  0  0  0  0  0  0  0
  -16.0113    4.6778   28.4527 C   0  0  0  0  0  0  0  0  0  0  0  0
  -16.0440    6.1074   29.0233 C   0  0  0  0  0  0  0  0  0  0  0  0
  -16.1577    7.0605   27.9686 C   0  0  0  0  0  0  0  0  0  0  0  0
  -16.1522    6.6882   26.6707 C   0  0  0  0  0  0  0  0  0  0  0  0
  -16.2799    8.3448   28.3354 F   0  0  0  0  0  0  0  0  0  0  0  0
  2  3  1  0
  3  8  1  0
  4  9  1  0
  9 10  1  0
  9 11  2  0
  3 12  1  0
  3 13  1  0
 14  6  1  1
 14 15  1  0
 14 21  1  0
 21 22  2  0
 22 23  1  0
 19 24  1  0
 23 24  2  0
 23 25  1  0
 25 26  2  0
 25 27  1  0
 27 28  1  0
 32 34  1  0
 15 16  2  0
 16 17  1  0
 17 18  2  0
 18 20  1  0
 20 19  2  0
 19 15  1  0
 28 29  2  0
 29 30  1  0
 30 31  2  0
 31 32  1  0
 32 33  2  0
 33 28  1  0
  1  2  2  0
  2  7  1  0
  7  6  2  0
  6  5  1  0
  5  4  2  0
  4  1  1  0
M  END
$$$$
