No_5611-complexes_sdf/6BKW-FPZ/2024-09-17-14-21-01/
     RDKit          3D

 34 40  0  0  0  0  0  0  0  0999 V2000
   -7.7129    4.2099   27.0854 C   0  0  0  0  0  0  0  0  0  0  0  0
   -7.7814    5.1722   27.8972 C   0  0  0  0  0  0  0  0  0  0  0  0
   -7.2983    2.9533   27.5684 C   0  0  0  0  0  0  0  0  0  0  0  0
   -7.6908    1.8111   26.9553 C   0  0  1  0  0  0  0  0  0  0  0  0
   -8.6533    1.9165   25.9430 C   0  0  0  0  0  0  0  0  0  0  0  0
   -9.2376    3.0581   25.6387 C   0  0  0  0  0  0  0  0  0  0  0  0
   -8.8901    4.1760   26.2867 C   0  0  0  0  0  0  0  0  0  0  0  0
   -8.2313    6.2997   27.8103 N   0  0  0  0  0  0  0  0  0  0  0  0
   -9.2168    6.5979   26.8458 C   0  0  0  0  0  0  0  0  0  0  0  0
   -9.5483    5.4532   26.0021 C   0  0  0  0  0  0  0  0  0  0  0  0
   -7.0321    0.5341   27.2088 C   0  0  0  0  0  0  0  0  0  0  0  0
   -5.7883    0.4763   27.8652 C   0  0  0  0  0  0  0  0  0  0  0  0
   -5.1967   -0.7140   28.1863 C   0  0  0  0  0  0  0  0  0  0  0  0
   -5.9047   -1.8499   27.9592 C   0  0  0  0  0  0  0  0  0  0  0  0
   -7.5737   -0.7364   27.1137 C   0  0  0  0  0  0  0  0  0  0  0  0
   -7.1159   -1.8629   27.4689 C   0  0  0  0  0  0  0  0  0  0  0  0
   -3.8313   -0.6741   28.8750 C   0  0  0  0  0  0  0  0  0  0  0  0
   -3.1129    0.5564   28.8988 C   0  0  0  0  0  0  0  0  0  0  0  0
   -3.3048   -1.8261   29.4267 C   0  0  0  0  0  0  0  0  0  0  0  0
   -2.0466   -1.8261   29.9791 C   0  0  0  0  0  0  0  0  0  0  0  0
   -3.6487    1.7319   28.3338 C   0  0  0  0  0  0  0  0  0  0  0  0
   -4.9336    1.6917   27.8758 C   0  0  0  0  0  0  0  0  0  0  0  0
   -1.6161   -2.9345   30.7588 C   0  0  0  0  0  0  0  0  0  0  0  0
   -2.3555   -4.0358   30.7428 C   0  0  0  0  0  0  0  0  0  0  0  0
   -3.5896   -4.0463   30.1379 C   0  0  0  0  0  0  0  0  0  0  0  0
   -4.0753   -2.9509   29.5444 C   0  0  0  0  0  0  0  0  0  0  0  0
   -5.3665   -3.0006   28.8375 C   0  0  0  0  0  0  0  0  0  0  0  0
   -6.0486   -4.0878   28.7689 O   0  0  0  0  0  0  0  0  0  0  0  0
  -10.2463    3.0422   24.5474 C   0  0  0  0  0  0  0  0  0  0  0  0
  -11.3472    3.7544   24.6631 C   0  0  0  0  0  0  0  0  0  0  0  0
   -9.9807    2.3334   23.4131 C   0  0  0  0  0  0  0  0  0  0  0  0
  -12.3422    3.7339   23.7081 C   0  0  0  0  0  0  0  0  0  0  0  0
  -10.8690    2.2955   22.3910 C   0  0  0  0  0  0  0  0  0  0  0  0
  -12.0591    3.0034   22.5036 C   0  0  0  0  0  0  0  0  0  0  0  0
  1  3  1  0
  3  4  1  0
  4  5  1  0
  5  6  1  0
  6  7  1  0
  4 11  1  6
 17 19  1  0
 14 27  1  0
 26 27  1  0
 27 28  2  0
  6 29  1  0
 29 30  2  0
 30 32  1  0
 32 34  2  0
 34 33  1  0
 33 31  2  0
 31 29  1  0
  1  2  2  0
  2  8  1  0
  8  9  2  0
  9 10  1  0
 10  7  2  0
  7  1  1  0
 19 20  2  0
 20 23  1  0
 23 24  2  0
 24 25  1  0
 25 26  2  0
 26 19  1  0
 11 12  2  0
 13 14  2  0
 14 16  1  0
 16 15  2  0
 15 11  1  0
 12 13  1  0
 13 17  1  0
 17 18  2  0
 18 21  1  0
 21 22  2  0
 22 12  1  0
M  END
$$$$
