No_5926-complexes_sdf/6BKW-FPZ/2024-09-17-14-21-01/
     RDKit          3D

 40 46  0  0  0  0  0  0  0  0999 V2000
   -7.9040    3.9820   27.1177 C   0  0  0  0  0  0  0  0  0  0  0  0
   -9.0711    4.3164   27.0630 C   0  0  0  0  0  0  0  0  0  0  0  0
   -9.9692    3.7224   26.1073 C   0  0  0  0  0  0  0  0  0  0  0  0
   -7.6100    2.8057   27.0183 C   0  0  0  0  0  0  0  0  0  0  0  0
   -8.4359    1.9023   26.2804 C   0  0  0  0  0  0  0  0  0  0  0  0
   -9.6274    2.4173   25.8979 C   0  0  0  0  0  0  0  0  0  0  0  0
   -7.8266    0.5502   26.0639 C   0  0  2  0  0  0  0  0  0  0  0  0
   -8.0327    0.0096   24.9899 N   0  0  0  0  0  0  0  0  0  0  0  0
   -9.4571    5.8779   27.2951 C   0  0  0  0  0  0  0  0  0  0  0  0
   -8.3726    0.5249   23.9289 C   0  0  0  0  0  0  0  0  0  0  0  0
   -8.3639   -0.1851   22.6425 C   0  0  0  0  0  0  0  0  0  0  0  0
   -7.7490   -1.4451   24.8850 C   0  0  2  0  0  0  0  0  0  0  0  0
   -7.3605   -2.1411   26.0672 C   0  0  0  0  0  0  0  0  0  0  0  0
   -7.2419   -1.3236   27.1830 C   0  0  1  0  0  0  0  0  0  0  0  0
   -7.5130   -0.0220   27.2958 C   0  0  0  0  0  0  0  0  0  0  0  0
   -7.7643   -2.0502   23.6803 C   0  0  0  0  0  0  0  0  0  0  0  0
   -8.0698   -1.3948   22.5330 C   0  0  0  0  0  0  0  0  0  0  0  0
   -8.4534    6.9003   27.1695 C   0  0  0  0  0  0  0  0  0  0  0  0
   -7.1063    6.5784   27.3696 C   0  0  0  0  0  0  0  0  0  0  0  0
   -6.8401    5.0845   27.4308 C   0  0  0  0  0  0  0  0  0  0  0  0
  -11.2850    4.1620   25.7232 C   0  0  0  0  0  0  0  0  0  0  0  0
  -12.3709    3.8980   26.4971 C   0  0  0  0  0  0  0  0  0  0  0  0
  -13.6634    4.1514   26.0561 C   0  0  0  0  0  0  0  0  0  0  0  0
  -13.8093    4.5122   24.6820 C   0  0  0  0  0  0  0  0  0  0  0  0
  -11.5043    4.3935   24.3356 C   0  0  0  0  0  0  0  0  0  0  0  0
  -12.7379    4.6268   23.8617 C   0  0  0  0  0  0  0  0  0  0  0  0
  -10.3313    4.5772   23.4368 C   0  0  0  0  0  0  0  0  0  0  0  0
   -6.7935   -2.0454   28.5138 C   0  0  1  0  0  0  0  0  0  0  0  0
   -5.5794   -1.8019   29.0410 C   0  0  2  0  0  0  0  0  0  0  0  0
   -4.6789   -0.9371   28.5623 C   0  0  0  0  0  0  0  0  0  0  0  0
   -4.1029   -0.1643   28.9039 C   0  0  0  0  0  0  0  0  0  0  0  0
   -3.2050    0.8701   28.2694 C   0  0  0  0  0  0  0  0  0  0  0  0
   -2.9477    0.6196   26.9604 C   0  0  0  0  0  0  0  0  0  0  0  0
   -3.6583   -0.3287   26.2653 C   0  0  0  0  0  0  0  0  0  0  0  0
   -4.5442   -1.1579   27.0187 C   0  0  0  0  0  0  0  0  0  0  0  0
   -7.8399   -2.8895   29.0799 C   0  0  0  0  0  0  0  0  0  0  0  0
   -7.8042   -4.0826   29.0991 C   0  0  0  0  0  0  0  0  0  0  0  0
   -6.6372   -4.7804   28.6956 C   0  0  0  0  0  0  0  0  0  0  0  0
   -5.5805   -4.5125   29.0560 C   0  0  0  0  0  0  0  0  0  0  0  0
   -4.8176   -3.3239   28.9790 C   0  0  0  0  0  0  0  0  0  0  0  0
  7  5  1  1
  7  8  1  0
  8 10  1  0
  8 12  1  0
 12 13  1  6
  7 15  1  0
 14 15  1  1
 12 16  1  0
 11 17  1  0
  3 21  1  0
 25 27  1  0
 14 28  1  0
 28 29  1  0
 29 30  1  6
 28 36  1  1
 36 37  2  0
 37 38  1  0
 38 39  2  0
 29 40  1  0
 39 40  1  0
 14 13  1  0
 10 11  1  0
 17 16  1  0
  2  3  1  0
  3  6  2  0
  6  5  1  0
  5  4  2  0
  4  1  1  0
 21 22  2  0
 22 23  1  0
 23 24  2  0
 24 26  1  0
 26 25  2  0
 25 21  1  0
  1  2  2  0
  2  9  1  0
  9 18  2  0
 18 19  1  0
 19 20  2  0
 20  1  1  0
 30 31  2  0
 31 32  1  0
 32 33  2  0
 33 34  1  0
 34 35  2  0
 35 30  1  0
M  END
$$$$
