No_5264-complexes_sdf/6BKW-FPZ/2024-09-17-14-21-01/
     RDKit          3D

 27 30  0  0  0  0  0  0  0  0999 V2000
   -7.7129    4.2099   27.0854 C   0  0  0  0  0  0  0  0  0  0  0  0
   -7.7814    5.1722   27.8972 C   0  0  0  0  0  0  0  0  0  0  0  0
   -8.7889    3.2468   27.2220 C   0  0  0  0  0  0  0  0  0  0  0  0
   -9.8927    3.4443   27.8449 C   0  0  0  0  0  0  0  0  0  0  0  0
  -10.1722    4.7545   28.4638 C   0  0  0  0  0  0  0  0  0  0  0  0
   -9.0355    5.6915   28.3937 C   0  0  0  0  0  0  0  0  0  0  0  0
   -8.5816    1.8530   26.6099 C   0  0  0  0  0  0  0  0  0  0  0  0
   -9.3114    1.3309   25.7791 C   0  0  0  0  0  0  0  0  0  0  0  0
   -9.0122    0.1036   25.1497 C   0  0  0  0  0  0  0  0  0  0  0  0
   -7.8317   -0.5412   25.4923 C   0  0  0  0  0  0  0  0  0  0  0  0
   -6.9794   -0.0119   26.4366 C   0  0  0  0  0  0  0  0  0  0  0  0
   -7.2776    1.2348   27.0593 C   0  0  0  0  0  0  0  0  0  0  0  0
   -9.8836   -0.4229   24.0902 C   0  0  0  0  0  0  0  0  0  0  0  0
  -11.1058    0.0151   23.9029 C   0  0  0  0  0  0  0  0  0  0  0  0
  -11.9076   -0.4192   22.8373 C   0  0  0  0  0  0  0  0  0  0  0  0
  -11.3447   -1.3553   21.9465 C   0  0  0  0  0  0  0  0  0  0  0  0
  -10.0334   -1.7705   22.0846 C   0  0  0  0  0  0  0  0  0  0  0  0
   -9.2310   -1.2747   23.1046 C   0  0  0  0  0  0  0  0  0  0  0  0
   -5.7511   -0.6905   26.8296 C   0  0  0  0  0  0  0  0  0  0  0  0
   -5.8693   -1.4410   27.7509 N   0  0  0  0  0  0  0  0  0  0  0  0
   -5.0319   -2.0356   28.4205 C   0  0  0  0  0  0  0  0  0  0  0  0
   -4.3807   -1.6762   29.4276 C   0  0  0  0  0  0  0  0  0  0  0  0
   -4.6972   -0.3393   30.0267 C   0  0  0  0  0  0  0  0  0  0  0  0
   -3.9479    0.1088   31.2213 C   0  0  0  0  0  0  0  0  0  0  0  0
   -2.9409   -0.6583   31.7746 C   0  0  0  0  0  0  0  0  0  0  0  0
   -2.5921   -1.8724   31.2028 C   0  0  0  0  0  0  0  0  0  0  0  0
   -3.2980   -2.3208   30.1363 C   0  0  0  0  0  0  0  0  0  0  0  0
  3  7  1  0
  9 13  1  0
 11 19  1  0
 19 20  1  0
 20 21  1  0
 21 22  1  0
 13 14  2  0
 14 15  1  0
 15 16  2  0
 16 17  1  0
 17 18  2  0
 18 13  1  0
  1  2  2  0
  2  6  1  0
  6  5  2  0
  5  4  1  0
  4  3  2  0
  3  1  1  0
 22 23  2  0
 23 24  1  0
 24 25  2  0
 25 26  1  0
 26 27  2  0
 27 22  1  0
  7  8  2  0
  8  9  1  0
  9 10  2  0
 10 11  1  0
 11 12  2  0
 12  7  1  0
M  END
$$$$
