No_5115-complexes_sdf/6BKW-FPZ/2024-09-17-14-21-01/
     RDKit          3D

 18 19  0  0  0  0  0  0  0  0999 V2000
   -7.7129    4.2099   27.0854 C   0  0  0  0  0  0  0  0  0  0  0  0
   -8.2112    3.0637   26.9225 C   0  0  0  0  0  0  0  0  0  0  0  0
   -8.5108    5.3904   26.9436 C   0  0  0  0  0  0  0  0  0  0  0  0
   -9.7256    5.1955   26.3518 C   0  0  0  0  0  0  0  0  0  0  0  0
   -9.4995    2.8258   26.4878 C   0  0  0  0  0  0  0  0  0  0  0  0
  -10.2542    3.9691   26.2055 C   0  0  0  0  0  0  0  0  0  0  0  0
   -7.9135    6.7086   27.1885 C   0  0  0  0  0  0  0  0  0  0  0  0
   -7.5950    1.7068   27.2240 C   0  0  0  0  0  0  0  0  0  0  0  0
   -6.2918    1.7739   27.6676 N   0  0  0  0  0  0  0  0  0  0  0  0
   -5.6322    0.6172   27.9420 C   0  0  0  0  0  0  0  0  0  0  0  0
   -4.2438    0.7241   28.5055 C   0  0  0  0  0  0  0  0  0  0  0  0
   -6.1906   -0.6110   27.6841 C   0  0  0  0  0  0  0  0  0  0  0  0
   -8.3373    0.7252   27.3440 O   0  0  0  0  0  0  0  0  0  0  0  0
   -5.3430   -1.7331   28.0738 C   0  0  0  0  0  0  0  0  0  0  0  0
   -3.5438   -0.3622   28.8813 C   0  0  0  0  0  0  0  0  0  0  0  0
   -4.0848   -1.5970   28.6780 C   0  0  0  0  0  0  0  0  0  0  0  0
   -8.5924    7.8185   26.8040 N   0  0  0  0  0  0  0  0  0  0  0  0
   -7.0228    6.8480   28.1162 O   0  0  0  0  0  0  0  0  0  0  0  0
  3  7  1  0
  2  8  1  0
  8  9  1  0
  8 13  2  0
  7 17  1  0
  7 18  2  0
  9 10  1  0
 10 11  2  0
 11 15  1  0
 15 16  2  0
 16 14  1  0
 14 12  2  0
 12 10  1  0
  1  2  2  0
  2  5  1  0
  5  6  2  0
  6  4  1  0
  4  3  2  0
  3  1  1  0
M  END
$$$$
