No_5671-complexes_sdf/6BKW-FPZ/2024-09-17-14-21-01/
     RDKit          3D

 15 16  0  0  0  0  0  0  0  0999 V2000
   -7.7129    4.2099   27.0854 C   0  0  0  0  0  0  0  0  0  0  0  0
   -8.9133    4.4736   27.0998 C   0  0  0  0  0  0  0  0  0  0  0  0
   -9.7134    3.9633   26.0300 C   0  0  0  0  0  0  0  0  0  0  0  0
   -7.1708    2.9509   26.6517 C   0  0  0  0  0  0  0  0  0  0  0  0
   -8.1338    2.1226   26.0346 C   0  0  0  0  0  0  0  0  0  0  0  0
   -9.3388    2.6863   25.6841 C   0  0  0  0  0  0  0  0  0  0  0  0
   -9.2342    5.8129   27.3429 F   0  0  0  0  0  0  0  0  0  0  0  0
   -7.7522    0.7690   25.6904 C   0  0  0  0  0  0  0  0  0  0  0  0
   -8.3459   -0.1186   26.4433 C   0  0  0  0  0  0  0  0  0  0  0  0
   -7.8898   -1.3915   26.4617 C   0  0  0  0  0  0  0  0  0  0  0  0
   -8.4887   -2.3673   27.3526 C   0  0  0  0  0  0  0  0  0  0  0  0
   -9.6144   -1.9659   28.1465 C   0  0  0  0  0  0  0  0  0  0  0  0
  -10.0683   -0.6606   28.1198 C   0  0  0  0  0  0  0  0  0  0  0  0
   -9.4586    0.2767   27.3312 C   0  0  0  0  0  0  0  0  0  0  0  0
   -6.7913    4.8466   28.0456 O   0  0  0  0  0  0  0  0  0  0  0  0
  2  7  1  0
  5  8  1  0
  8  9  1  0
  1 15  1  0
  1  2  2  0
  2  3  1  0
  3  6  2  0
  6  5  1  0
  5  4  2  0
  4  1  1  0
  9 10  2  0
 10 11  1  0
 11 12  2  0
 12 13  1  0
 13 14  2  0
 14  9  1  0
M  END
$$$$
