No_5261-complexes_sdf/6BKW-FPZ/2024-09-17-14-21-01/
     RDKit          3D

 15 16  0  0  0  0  0  0  0  0999 V2000
   -7.9040    3.9820   27.1177 C   0  0  0  0  0  0  0  0  0  0  0  0
   -8.2057    2.8231   26.8733 C   0  0  0  0  0  0  0  0  0  0  0  0
   -9.2962    2.4021   26.1155 C   0  0  0  0  0  0  0  0  0  0  0  0
   -8.7358    5.0662   26.5917 C   0  0  0  0  0  0  0  0  0  0  0  0
   -9.7618    4.7023   25.7546 C   0  0  0  0  0  0  0  0  0  0  0  0
  -10.0066    3.4105   25.4922 C   0  0  0  0  0  0  0  0  0  0  0  0
   -8.2811    6.2830   26.9003 F   0  0  0  0  0  0  0  0  0  0  0  0
   -9.5601    0.9829   25.8322 C   0  0  0  0  0  0  0  0  0  0  0  0
   -9.1758    0.4293   24.8486 C   0  0  0  0  0  0  0  0  0  0  0  0
   -9.3897   -0.9746   24.5051 C   0  0  0  0  0  0  0  0  0  0  0  0
  -10.0290   -1.7216   25.4765 C   0  0  0  0  0  0  0  0  0  0  0  0
  -10.1441    0.1733   26.8715 C   0  0  0  0  0  0  0  0  0  0  0  0
  -10.3999   -1.1399   26.7352 C   0  0  0  0  0  0  0  0  0  0  0  0
  -11.3065    3.0520   24.4573 Cl  0  0  0  0  0  0  0  0  0  0  0  0
   -6.5598    4.4962   28.1680 Cl  0  0  0  0  0  0  0  0  0  0  0  0
  4  7  1  0
  3  8  1  0
  6 14  1  0
  1 15  1  0
  1  2  2  0
  2  3  1  0
  3  6  2  0
  6  5  1  0
  5  4  2  0
  4  1  1  0
  8  9  2  0
  9 10  1  0
 10 11  2  0
 11 13  1  0
 13 12  2  0
 12  8  1  0
M  END
$$$$
