No_5731-complexes_sdf/6BKW-FPZ/2024-09-17-14-21-01/
     RDKit          3D

 14 14  0  0  0  0  0  0  0  0999 V2000
   -7.2496    3.8871   27.4508 C   0  0  0  0  0  0  0  0  0  0  0  0
   -8.5096    4.0291   27.2770 C   0  0  0  0  0  0  0  0  0  0  0  0
   -9.2677    5.1714   27.5773 C   0  0  0  0  0  0  0  0  0  0  0  0
   -9.2765    2.8248   26.8371 C   0  0  0  0  0  0  0  0  0  0  0  0
   -8.6731    1.7312   26.5464 C   0  0  0  0  0  0  0  0  0  0  0  0
   -6.5216    2.6580   27.4010 C   0  0  0  0  0  0  0  0  0  0  0  0
   -7.2494    1.5864   26.9125 C   0  0  0  0  0  0  0  0  0  0  0  0
   -9.2215    6.1793   26.6921 C   0  0  0  0  0  0  0  0  0  0  0  0
   -8.0831    6.8878   26.6181 C   0  0  0  0  0  0  0  0  0  0  0  0
   -6.4377    0.1102   26.6385 Cl  0  0  0  0  0  0  0  0  0  0  0  0
   -8.2395    8.3469   26.3782 C   0  0  0  0  0  0  0  0  0  0  0  0
  -10.7018    2.7612   26.6564 C   0  0  0  0  0  0  0  0  0  0  0  0
  -11.4319    2.9904   27.4715 C   0  0  0  0  0  0  0  0  0  0  0  0
  -12.9009    2.8748   27.4712 C   0  0  0  0  0  0  0  0  0  0  0  0
  2  3  1  0
  3  8  1  0
  8  9  1  0
  7 10  1  0
  9 11  1  0
  4 12  1  0
 12 13  2  3
 13 14  1  0
  1  2  2  0
  2  4  1  0
  4  5  2  0
  5  7  1  0
  7  6  2  0
  6  1  1  0
M  END
$$$$
