No_5467-complexes_sdf/6BKW-FPZ/2024-09-17-14-21-01/
     RDKit          3D

 25 27  0  0  0  0  0  0  0  0999 V2000
   -7.9040    3.9820   27.1177 C   0  0  0  0  0  0  0  0  0  0  0  0
   -8.2057    2.8231   26.8733 C   0  0  0  0  0  0  0  0  0  0  0  0
   -7.0130    4.3706   28.1140 C   0  0  0  0  0  0  0  0  0  0  0  0
   -9.3829    2.4374   26.1668 C   0  0  0  0  0  0  0  0  0  0  0  0
  -10.0975    3.4171   25.5988 C   0  0  0  0  0  0  0  0  0  0  0  0
   -9.7085    4.7741   25.7618 C   0  0  0  0  0  0  0  0  0  0  0  0
   -8.7070    5.1118   26.5885 C   0  0  0  0  0  0  0  0  0  0  0  0
   -8.3796    6.4505   26.8989 C   0  0  0  0  0  0  0  0  0  0  0  0
   -6.7947    5.6977   28.5155 C   0  0  0  0  0  0  0  0  0  0  0  0
   -7.4402    6.6696   27.8656 N   0  0  0  0  0  0  0  0  0  0  0  0
   -8.9824    7.4357   26.4091 O   0  0  0  0  0  0  0  0  0  0  0  0
   -7.4415    1.6304   27.4521 C   0  0  0  0  0  0  0  0  0  0  0  0
   -7.7907    0.2930   27.2002 C   0  0  0  0  0  0  0  0  0  0  0  0
   -7.0424   -0.7008   27.6934 C   0  0  0  0  0  0  0  0  0  0  0  0
   -5.7836   -0.4027   28.2929 C   0  0  0  0  0  0  0  0  0  0  0  0
   -5.3189    0.9280   28.3474 C   0  0  0  0  0  0  0  0  0  0  0  0
   -6.0739    1.9057   27.9180 C   0  0  0  0  0  0  0  0  0  0  0  0
   -4.1316    1.1787   28.8959 F   0  0  0  0  0  0  0  0  0  0  0  0
  -11.2169    3.1935   24.6526 C   0  0  0  0  0  0  0  0  0  0  0  0
  -10.9933    2.7814   23.6328 F   0  0  0  0  0  0  0  0  0  0  0  0
  -11.8750    4.3982   24.5494 F   0  0  0  0  0  0  0  0  0  0  0  0
  -12.3057    2.3940   25.2974 C   0  0  0  0  0  0  0  0  0  0  0  0
  -13.4423    2.4404   24.8350 C   0  0  0  0  0  0  0  0  0  0  0  0
  -13.8958    3.4910   24.0177 C   0  0  0  0  0  0  0  0  0  0  0  0
  -15.2511    3.6730   23.4992 C   0  0  0  0  0  0  0  0  0  0  0  0
  7  8  1  0
  3  9  1  0
  8 10  1  0
  8 11  2  0
  2 12  1  0
 16 18  1  0
  5 19  1  0
 19 20  1  0
 19 21  1  0
 19 22  1  0
 22 23  2  3
 23 24  1  0
 24 25  1  0
  1  3  1  0
  9 10  1  0
 12 13  2  0
 13 14  1  0
 14 15  2  0
 15 16  1  0
 16 17  2  0
 17 12  1  0
  1  2  2  0
  2  4  1  0
  4  5  2  0
  5  6  1  0
  6  7  2  0
  7  1  1  0
M  END
$$$$
