No_5595-complexes_sdf/6BKW-FPZ/2024-09-17-14-21-01/
     RDKit          3D

 11 11  0  0  0  0  0  0  0  0999 V2000
   -7.7129    4.2099   27.0854 C   0  0  0  0  0  0  0  0  0  0  0  0
   -7.7814    5.1722   27.8972 C   0  0  0  0  0  0  0  0  0  0  0  0
   -8.8776    3.8408   26.3416 C   0  0  0  0  0  0  0  0  0  0  0  0
   -8.9136    2.6330   25.5655 C   0  0  0  0  0  0  0  0  0  0  0  0
   -8.8361    6.1389   27.9032 C   0  0  0  0  0  0  0  0  0  0  0  0
   -9.9718    4.7048   26.3433 C   0  0  0  0  0  0  0  0  0  0  0  0
  -11.3186    4.2863   25.2443 Br  0  0  0  0  0  0  0  0  0  0  0  0
   -9.9397    5.8788   27.0850 C   0  0  0  0  0  0  0  0  0  0  0  0
   -8.0190    1.7844   26.0611 F   0  0  0  0  0  0  0  0  0  0  0  0
   -8.4592    2.8802   24.2855 F   0  0  0  0  0  0  0  0  0  0  0  0
  -10.0546    2.0052   25.5720 F   0  0  0  0  0  0  0  0  0  0  0  0
  3  4  1  0
  6  7  1  0
  4  9  1  0
  4 10  1  0
  4 11  1  0
  1  2  2  0
  2  5  1  0
  5  8  2  0
  8  6  1  0
  6  3  2  0
  3  1  1  0
M  END
$$$$
