No_5529-complexes_sdf/6BKW-FPZ/2024-09-17-14-21-01/
     RDKit          3D

 18 19  0  0  0  0  0  0  0  0999 V2000
   -7.9040    3.9820   27.1177 C   0  0  0  0  0  0  0  0  0  0  0  0
   -8.2057    2.8231   26.8733 C   0  0  0  0  0  0  0  0  0  0  0  0
   -7.0130    4.3706   28.1140 C   0  0  0  0  0  0  0  0  0  0  0  0
   -9.3829    2.4374   26.1668 C   0  0  1  0  0  0  0  0  0  0  0  0
  -10.0975    3.4171   25.5988 C   0  0  0  0  0  0  0  0  0  0  0  0
   -9.7335    4.7745   25.7705 C   0  0  0  0  0  0  0  0  0  0  0  0
   -8.7317    5.1107   26.5933 C   0  0  0  0  0  0  0  0  0  0  0  0
   -8.4060    6.4842   26.8915 C   0  0  0  0  0  0  0  0  0  0  0  0
   -9.2251    7.5662   26.5666 C   0  0  0  0  0  0  0  0  0  0  0  0
   -7.2252    6.6557   27.8043 C   0  0  0  0  0  0  0  0  0  0  0  0
   -6.6817    5.6709   28.4147 C   0  0  0  0  0  0  0  0  0  0  0  0
   -9.6557    1.0323   25.8091 C   0  0  0  0  0  0  0  0  0  0  0  0
  -10.6258    0.4551   26.4733 C   0  0  0  0  0  0  0  0  0  0  0  0
  -11.4539    1.0507   27.2218 C   0  0  0  0  0  0  0  0  0  0  0  0
  -12.4775    0.3750   28.0809 C   0  0  0  0  0  0  0  0  0  0  0  0
  -13.3424    1.0813   28.9443 C   0  0  0  0  0  0  0  0  0  0  0  0
  -13.1267    2.4816   29.1182 C   0  0  0  0  0  0  0  0  0  0  0  0
  -12.0857    3.1305   28.4722 C   0  0  0  0  0  0  0  0  0  0  0  0
  1  2  1  0
  2  4  1  0
  4  5  1  0
  5  6  1  0
  6  7  1  0
  8  9  1  0
  4 12  1  6
 12 13  1  0
 13 14  2  3
 14 15  1  0
 15 16  2  3
 16 17  1  0
 17 18  2  0
  1  3  2  0
  3 11  1  0
 11 10  2  0
 10  8  1  0
  8  7  2  0
  7  1  1  0
M  END
$$$$
