No_5541-complexes_sdf/6BKW-FPZ/2024-09-17-14-21-01/
     RDKit          3D

 12 12  0  0  0  0  0  0  0  0999 V2000
   -7.2496    3.8871   27.4508 C   0  0  0  0  0  0  0  0  0  0  0  0
   -7.6161    2.7143   27.1523 C   0  0  0  0  0  0  0  0  0  0  0  0
   -8.6212    2.2239   26.4074 C   0  0  0  0  0  0  0  0  0  0  0  0
   -8.2540    4.9237   27.1711 C   0  0  0  0  0  0  0  0  0  0  0  0
   -8.0299    6.2902   27.5027 C   0  0  0  0  0  0  0  0  0  0  0  0
   -9.3752    4.6360   26.4537 C   0  0  0  0  0  0  0  0  0  0  0  0
  -10.3549    5.6287   26.2544 C   0  0  0  0  0  0  0  0  0  0  0  0
   -9.6689    3.2874   26.1305 C   0  0  0  0  0  0  0  0  0  0  0  0
   -8.8653    0.8710   26.0967 C   0  0  0  0  0  0  0  0  0  0  0  0
   -9.2068    0.0003   26.8644 C   0  0  0  0  0  0  0  0  0  0  0  0
   -9.4483   -0.9595   27.1082 C   0  0  0  0  0  0  0  0  0  0  0  0
   -9.8927   -1.6596   28.4098 C   0  0  0  0  0  0  0  0  0  0  0  0
  4  5  1  0
  6  7  1  0
  3  9  1  0
  9 10  2  3
 10 11  1  0
 11 12  2  0
  1  2  2  0
  2  3  1  0
  3  8  2  0
  8  6  1  0
  6  4  2  0
  4  1  1  0
M  END
$$$$
