No_525-complexes_sdf/6BKW-FPZ/2024-09-17-14-21-01/
     RDKit          3D

 19 20  0  0  0  0  0  0  0  0999 V2000
   -7.9040    3.9820   27.1177 C   0  0  0  0  0  0  0  0  0  0  0  0
   -7.8663    4.8694   27.9238 C   0  0  1  0  0  0  0  0  0  0  0  0
   -9.0491    3.8523   26.2542 C   0  0  0  0  0  0  0  0  0  0  0  0
   -6.5926    5.1015   28.6929 C   0  0  0  0  0  0  0  0  0  0  0  0
   -9.2836    2.7234   25.4168 C   0  0  0  0  0  0  0  0  0  0  0  0
   -8.4963    1.6226   25.6057 C   0  0  0  0  0  0  0  0  0  0  0  0
   -7.4584    1.6290   26.6225 C   0  0  0  0  0  0  0  0  0  0  0  0
   -7.2351    2.7380   27.4367 C   0  0  0  0  0  0  0  0  0  0  0  0
   -8.1824    6.3291   27.3984 C   0  0  0  0  0  0  0  0  0  0  0  0
   -9.5355    6.6241   27.1456 C   0  0  0  0  0  0  0  0  0  0  0  0
  -10.2320    2.4848   24.4190 C   0  0  0  0  0  0  0  0  0  0  0  0
  -10.2209    1.6411   23.4435 C   0  0  0  0  0  0  0  0  0  0  0  0
  -11.1072    1.6274   22.4145 C   0  0  0  0  0  0  0  0  0  0  0  0
  -11.6815    2.4846   22.2416 C   0  0  0  0  0  0  0  0  0  0  0  0
  -11.1549    3.6203   23.9281 C   0  0  0  0  0  0  0  0  0  0  0  0
  -11.8857    3.6700   22.9615 C   0  0  0  0  0  0  0  0  0  0  0  0
   -6.6606    0.3781   26.8653 C   0  0  0  0  0  0  0  0  0  0  0  0
   -5.7482    0.3560   27.5850 O   0  0  0  0  0  0  0  0  0  0  0  0
   -7.0815   -0.7047   26.3058 O   0  0  0  0  0  0  0  0  0  0  0  0
  1  2  1  0
  2  4  1  6
  2  9  1  0
  9 10  2  0
  5 11  1  0
  7 17  1  0
 17 18  2  0
 17 19  1  0
  1  3  2  0
  3  5  1  0
  5  6  2  0
  6  7  1  0
  7  8  2  0
  8  1  1  0
 11 12  2  0
 12 13  1  0
 13 14  2  0
 14 16  1  0
 16 15  2  0
 15 11  1  0
M  END
$$$$
