No_528-complexes_sdf/6BKW-FPZ/2024-09-17-14-21-01/
     RDKit          3D

 40 44  0  0  0  0  0  0  0  0999 V2000
   -7.2496    3.8871   27.4508 C   0  0  0  0  0  0  0  0  0  0  0  0
   -7.9379    4.9063   27.8518 C   0  0  0  0  0  0  0  0  0  0  0  0
   -9.3376    4.8647   27.7795 C   0  0  0  0  0  0  0  0  0  0  0  0
   -7.8544    2.6294   27.0414 C   0  0  0  0  0  0  0  0  0  0  0  0
   -9.2665    2.6175   27.0340 C   0  0  0  0  0  0  0  0  0  0  0  0
   -9.9836    3.7042   27.4150 C   0  0  0  0  0  0  0  0  0  0  0  0
   -7.0765    1.4847   26.7707 C   0  0  0  0  0  0  0  0  0  0  0  0
   -7.2323    0.3417   27.5302 C   0  0  0  0  0  0  0  0  0  0  0  0
   -6.2032   -0.5022   27.8254 C   0  0  0  0  0  0  0  0  0  0  0  0
   -6.3799   -1.6226   28.5256 C   0  0  0  0  0  0  0  0  0  0  0  0
   -7.7032   -1.9986   28.9233 C   0  0  0  0  0  0  0  0  0  0  0  0
   -8.7846   -1.2341   28.4726 C   0  0  0  0  0  0  0  0  0  0  0  0
   -8.5596   -0.0929   27.7826 C   0  0  0  0  0  0  0  0  0  0  0  0
  -11.4566    3.6416   27.4535 C   0  0  0  0  0  0  0  0  0  0  0  0
  -12.2398    3.7960   26.8283 C   0  0  0  0  0  0  0  0  0  0  0  0
  -11.9826    4.0243   25.3730 C   0  0  0  0  0  0  0  0  0  0  0  0
  -12.9408    4.0135   24.3513 C   0  0  0  0  0  0  0  0  0  0  0  0
  -13.7432    3.7999   26.9455 C   0  0  0  0  0  0  0  0  0  0  0  0
  -14.7062    3.9532   25.9662 C   0  0  0  0  0  0  0  0  0  0  0  0
  -14.2545    4.1548   24.6716 C   0  0  0  0  0  0  0  0  0  0  0  0
  -11.7927    3.3790   28.8804 O   0  0  0  0  0  0  0  0  0  0  0  0
   -7.1356    6.3658   28.3585 Cl  0  0  0  0  0  0  0  0  0  0  0  0
   -4.7936   -0.0384   27.5831 C   0  0  0  0  0  0  0  0  0  0  0  0
   -4.2847    0.9127   28.4811 C   0  0  0  0  0  0  0  0  0  0  0  0
   -4.0885   -0.5684   26.5634 C   0  0  0  0  0  0  0  0  0  0  0  0
   -4.7652    1.5259   29.3735 O   0  0  0  0  0  0  0  0  0  0  0  0
   -2.9126    1.3724   28.1230 N   0  0  0  0  0  0  0  0  0  0  0  0
   -2.1474    0.7672   27.0761 C   0  0  0  0  0  0  0  0  0  0  0  0
   -2.7712   -0.1812   26.2935 C   0  0  0  0  0  0  0  0  0  0  0  0
   -4.6675   -1.5920   25.6679 C   0  0  2  0  0  0  0  0  0  0  0  0
   -5.6756   -2.2019   26.1582 O   0  0  0  0  0  0  0  0  0  0  0  0
   -5.9765   -3.3817   25.3107 C   0  0  1  0  0  0  0  0  0  0  0  0
   -5.2148   -4.1642   25.2782 C   0  0  2  0  0  0  0  0  0  0  0  0
   -3.9400   -3.8420   24.6353 C   0  0  0  0  0  0  0  0  0  0  0  0
   -3.4636   -2.6429   25.5520 O   0  0  0  0  0  0  0  0  0  0  0  0
   -5.6393   -5.3508   24.4454 O   0  0  0  0  0  0  0  0  0  0  0  0
   -7.4082   -3.7555   25.8130 C   0  0  0  0  0  0  0  0  0  0  0  0
   -8.2401   -4.3531   25.0181 C   0  0  0  0  0  0  0  0  0  0  0  0
   -8.9860   -3.5742   24.2039 C   0  0  0  0  0  0  0  0  0  0  0  0
   -9.7772   -4.1112   23.2797 C   0  0  0  0  0  0  0  0  0  0  0  0
  4  7  1  0
  7  8  1  0
  6 14  1  0
 14 15  1  0
 14 21  2  0
  2 22  1  0
  9 23  1  0
 23 24  1  0
 23 25  1  0
 24 26  2  0
 24 27  1  0
 27 28  1  0
 25 29  1  0
 30 25  1  1
 30 31  1  0
 31 32  1  0
 32 33  1  0
 33 34  1  0
 30 35  1  0
 34 35  1  0
 33 36  1  6
 32 37  1  1
 37 38  1  0
 38 39  1  0
 39 40  2  0
 29 28  1  0
 15 16  2  0
 16 17  1  0
 17 20  2  0
 20 19  1  0
 19 18  2  0
 18 15  1  0
  1  2  2  0
  2  3  1  0
  3  6  2  0
  6  5  1  0
  5  4  2  0
  4  1  1  0
  8  9  1  0
  9 10  2  0
 10 11  1  0
 11 12  2  0
 12 13  1  0
 13  8  2  0
M  END
$$$$
