No_5461-complexes_sdf/6BKW-FPZ/2024-09-17-14-21-01/
     RDKit          3D

 21 22  0  0  0  0  0  0  0  0999 V2000
   -7.9040    3.9820   27.1177 C   0  0  0  0  0  0  0  0  0  0  0  0
   -7.8663    4.8694   27.9238 C   0  0  0  0  0  0  0  0  0  0  0  0
   -7.4547    2.7080   27.4594 C   0  0  0  0  0  0  0  0  0  0  0  0
   -8.0927    6.2909   27.5184 C   0  0  0  0  0  0  0  0  0  0  0  0
   -8.9150    6.5640   26.4331 C   0  0  0  0  0  0  0  0  0  0  0  0
   -7.6564    1.4669   26.7412 C   0  0  0  0  0  0  0  0  0  0  0  0
   -8.5911    4.1595   25.8847 C   0  0  0  0  0  0  0  0  0  0  0  0
   -9.1495    5.4407   25.5619 C   0  0  0  0  0  0  0  0  0  0  0  0
   -7.0888    0.3209   27.1087 C   0  0  0  0  0  0  0  0  0  0  0  0
   -5.9741    0.3604   27.9730 C   0  0  0  0  0  0  0  0  0  0  0  0
   -5.4832    1.6197   28.4391 C   0  0  0  0  0  0  0  0  0  0  0  0
   -6.0775    2.7381   28.1028 C   0  0  0  0  0  0  0  0  0  0  0  0
   -5.1092   -0.7917   28.3676 C   0  0  0  0  0  0  0  0  0  0  0  0
   -5.5099   -1.8102   28.4740 O   0  0  0  0  0  0  0  0  0  0  0  0
   -3.7633   -0.6538   28.5643 O   0  0  0  0  0  0  0  0  0  0  0  0
   -2.9770   -1.3623   28.2813 C   0  0  0  0  0  0  0  0  0  0  0  0
   -2.9238   -1.7265   27.1292 C   0  0  0  0  0  0  0  0  0  0  0  0
   -1.9664   -1.7303   29.2881 C   0  0  0  0  0  0  0  0  0  0  0  0
   -2.0699   -1.0743   30.4002 F   0  0  0  0  0  0  0  0  0  0  0  0
   -1.9510   -2.9934   29.5907 F   0  0  0  0  0  0  0  0  0  0  0  0
   -0.6820   -1.3997   28.7814 F   0  0  0  0  0  0  0  0  0  0  0  0
  1  3  1  0
 10 13  1  0
 13 14  2  0
 13 15  1  0
 15 16  1  0
 16 17  2  0
 16 18  1  0
 18 19  1  0
 18 20  1  0
 18 21  1  0
  1  2  2  0
  2  4  1  0
  4  5  2  0
  5  8  1  0
  8  7  2  0
  7  1  1  0
  3  6  2  0
  6  9  1  0
  9 10  2  0
 10 11  1  0
 11 12  2  0
 12  3  1  0
M  END
$$$$
