No_5517-complexes_sdf/6BKW-FPZ/2024-09-17-14-21-01/
     RDKit          3D

 20 22  0  0  0  0  0  0  0  0999 V2000
   -7.7129    4.2099   27.0854 C   0  0  0  0  0  0  0  0  0  0  0  0
   -7.7814    5.1722   27.8972 C   0  0  0  0  0  0  0  0  0  0  0  0
   -8.8776    3.8408   26.3416 C   0  0  0  0  0  0  0  0  0  0  0  0
   -8.9136    2.6330   25.5655 C   0  0  0  0  0  0  0  0  0  0  0  0
   -8.8361    6.1389   27.9032 C   0  0  0  0  0  0  0  0  0  0  0  0
   -9.9718    4.7048   26.3433 C   0  0  0  0  0  0  0  0  0  0  0  0
   -9.9205    5.8499   27.1013 C   0  0  0  0  0  0  0  0  0  0  0  0
   -8.2915    1.4822   26.1745 C   0  0  0  0  0  0  0  0  0  0  0  0
   -8.1032    0.3138   25.5111 C   0  0  0  0  0  0  0  0  0  0  0  0
   -7.4580   -0.7350   26.1256 C   0  0  0  0  0  0  0  0  0  0  0  0
   -6.9314   -0.6053   27.4409 C   0  0  0  0  0  0  0  0  0  0  0  0
   -7.0163    0.6644   28.0323 C   0  0  0  0  0  0  0  0  0  0  0  0
   -7.6266    1.6941   27.4734 C   0  0  0  0  0  0  0  0  0  0  0  0
   -9.6396    2.5077   24.4171 C   0  0  0  0  0  0  0  0  0  0  0  0
   -9.7828    1.4082   23.7420 C   0  0  0  0  0  0  0  0  0  0  0  0
   -8.8749    0.1747   24.2816 C   0  0  0  0  0  0  0  0  0  0  0  0
   -6.2144   -1.6968   28.0739 C   0  0  0  0  0  0  0  0  0  0  0  0
   -5.1393   -1.7561   28.4340 F   0  0  0  0  0  0  0  0  0  0  0  0
   -7.0586   -1.9598   29.2466 F   0  0  0  0  0  0  0  0  0  0  0  0
   -6.4952   -2.8949   27.3301 F   0  0  0  0  0  0  0  0  0  0  0  0
  3  4  1  0
 11 17  1  0
 17 18  1  0
 17 19  1  0
 17 20  1  0
  4  8  1  0
  9 16  1  0
 16 15  2  0
 15 14  1  0
 14  4  2  0
  8  9  1  0
  9 10  2  0
 10 11  1  0
 11 12  2  0
 12 13  1  0
 13  8  2  0
  1  2  2  0
  2  5  1  0
  5  7  2  0
  7  6  1  0
  6  3  2  0
  3  1  1  0
M  END
$$$$
