No_5142-complexes_sdf/6BKW-FPZ/2024-09-17-14-21-01/
     RDKit          3D

 12 12  0  0  0  0  0  0  0  0999 V2000
   -7.7129    4.2099   27.0854 C   0  0  0  0  0  0  0  0  0  0  0  0
   -8.9133    4.4736   27.0998 C   0  0  2  0  0  0  0  0  0  0  0  0
   -9.7135    3.9633   26.0300 C   0  0  0  0  0  0  0  0  0  0  0  0
   -7.2585    2.8371   26.9278 C   0  0  0  0  0  0  0  0  0  0  0  0
   -9.4798    2.6045   25.7571 C   0  0  2  0  0  0  0  0  0  0  0  0
   -8.2172    2.0709   26.1389 C   0  0  0  0  0  0  0  0  0  0  0  0
   -9.0496    6.1233   27.1833 C   0  0  0  0  0  0  0  0  0  0  0  0
   -9.6272    4.1785   28.3307 C   0  0  0  0  0  0  0  0  0  0  0  0
   -8.0682    6.8998   26.4766 C   0  0  0  0  0  0  0  0  0  0  0  0
  -10.2743    1.8419   24.8447 C   0  0  0  0  0  0  0  0  0  0  0  0
  -11.3771    2.0706   24.4536 C   0  0  0  0  0  0  0  0  0  0  0  0
  -12.1699    1.2917   23.5527 C   0  0  0  0  0  0  0  0  0  0  0  0
  1  2  1  0
  2  3  1  0
  1  4  1  0
  5  3  1  6
  5  6  1  0
  2  7  1  0
  2  8  1  1
  7  9  1  0
  5 10  1  0
 10 11  2  3
 11 12  1  0
  4  6  1  0
M  END
$$$$
