No_5513-complexes_sdf/6BKW-FPZ/2024-09-17-14-21-01/
     RDKit          3D

 25 28  0  0  0  0  0  0  0  0999 V2000
   -7.2496    3.8871   27.4508 C   0  0  0  0  0  0  0  0  0  0  0  0
   -8.5096    4.0291   27.2770 C   0  0  0  0  0  0  0  0  0  0  0  0
   -9.3451    2.8786   26.9046 C   0  0  0  0  0  0  0  0  0  0  0  0
   -6.6065    2.5680   27.5073 C   0  0  0  0  0  0  0  0  0  0  0  0
   -7.4233    1.4858   27.2402 C   0  0  0  0  0  0  0  0  0  0  0  0
   -8.7362    1.6525   26.9989 C   0  0  0  0  0  0  0  0  0  0  0  0
   -9.1023    5.3710   27.2131 C   0  0  0  0  0  0  0  0  0  0  0  0
   -8.5923    6.3829   27.0880 C   0  0  0  0  0  0  0  0  0  0  0  0
   -7.1667    6.4694   26.8740 C   0  0  0  0  0  0  0  0  0  0  0  0
   -6.4668    5.2464   27.4170 C   0  0  0  0  0  0  0  0  0  0  0  0
   -6.7590    0.1950   27.3675 C   0  0  0  0  0  0  0  0  0  0  0  0
   -5.5282    0.0800   27.7526 N   0  0  0  0  0  0  0  0  0  0  0  0
   -4.8946   -1.0569   28.0721 C   0  0  0  0  0  0  0  0  0  0  0  0
   -3.6956   -0.8637   28.6984 C   0  0  0  0  0  0  0  0  0  0  0  0
   -3.3993    0.5606   28.7026 C   0  0  0  0  0  0  0  0  0  0  0  0
   -4.6510    1.1333   28.2014 C   0  0  0  0  0  0  0  0  0  0  0  0
   -7.4312   -0.7901   27.0314 O   0  0  0  0  0  0  0  0  0  0  0  0
   -2.4622   -1.6116   28.0985 C   0  0  0  0  0  0  0  0  0  0  0  0
   -2.2144   -1.3314   26.8298 C   0  0  0  0  0  0  0  0  0  0  0  0
   -3.2099   -1.7326   25.9422 C   0  0  0  0  0  0  0  0  0  0  0  0
   -3.1783   -3.0952   25.5313 C   0  0  0  0  0  0  0  0  0  0  0  0
   -4.2084   -3.5912   24.6802 C   0  0  0  0  0  0  0  0  0  0  0  0
   -5.1766   -2.6906   24.2086 C   0  0  0  0  0  0  0  0  0  0  0  0
   -5.1504   -1.3146   24.5658 C   0  0  0  0  0  0  0  0  0  0  0  0
   -4.1833   -0.8794   25.4081 C   0  0  0  0  0  0  0  0  0  0  0  0
  5 11  1  0
 11 12  1  0
 12 13  1  0
 13 14  2  0
 14 15  1  0
 12 16  1  0
 15 16  1  0
 11 17  2  0
 14 18  1  0
 18 19  1  0
 19 20  1  0
  2  7  1  0
  7  8  2  0
  8  9  1  0
  9 10  2  0
 10  1  1  0
  1  2  1  0
  2  3  2  0
  3  6  1  0
  6  5  2  0
  5  4  1  0
  4  1  2  0
 20 21  2  0
 21 22  1  0
 22 23  2  0
 23 24  1  0
 24 25  2  0
 25 20  1  0
M  END
$$$$
