No_5968-complexes_sdf/6BKW-FPZ/2024-09-17-14-21-01/
     RDKit          3D

 17 18  0  0  0  0  0  0  0  0999 V2000
   -7.9040    3.9820   27.1177 C   0  0  0  0  0  0  0  0  0  0  0  0
   -9.0711    4.3164   27.0630 C   0  0  0  0  0  0  0  0  0  0  0  0
   -9.8698    3.9665   25.9494 C   0  0  0  0  0  0  0  0  0  0  0  0
   -7.0332    4.5030   28.2025 C   0  0  0  0  0  0  0  0  0  0  0  0
   -9.4357    2.9501   25.1393 C   0  0  0  0  0  0  0  0  0  0  0  0
   -8.2567    2.3218   25.4797 C   0  0  0  0  0  0  0  0  0  0  0  0
   -7.5105    2.7966   26.5752 C   0  0  0  0  0  0  0  0  0  0  0  0
  -10.2472    2.5204   24.0264 C   0  0  0  0  0  0  0  0  0  0  0  0
  -10.0866    1.3973   23.5085 N   0  0  0  0  0  0  0  0  0  0  0  0
   -7.4923    5.4167   28.9871 F   0  0  0  0  0  0  0  0  0  0  0  0
   -5.8804    5.1771   27.5979 F   0  0  0  0  0  0  0  0  0  0  0  0
  -11.0418    3.3567   23.4229 O   0  0  0  0  0  0  0  0  0  0  0  0
  -10.6198    0.9091   22.3741 C   0  0  0  0  0  0  0  0  0  0  0  0
  -10.1228   -0.2800   21.8228 C   0  0  0  0  0  0  0  0  0  0  0  0
   -9.0739   -0.9684   22.4731 C   0  0  0  0  0  0  0  0  0  0  0  0
   -8.4992   -0.4627   23.5748 C   0  0  0  0  0  0  0  0  0  0  0  0
   -8.9306    0.6600   24.0808 C   0  0  0  0  0  0  0  0  0  0  0  0
  1  4  1  0
  5  8  1  0
  8  9  1  0
  4 10  1  0
  4 11  1  0
  8 12  2  0
  9 13  1  0
 14 15  1  0
  9 17  1  0
 16 17  1  0
 13 14  1  0
 15 16  1  0
  1  2  2  0
  2  3  1  0
  3  5  2  0
  5  6  1  0
  6  7  2  0
  7  1  1  0
M  END
$$$$
