No_572-complexes_sdf/6BKW-FPZ/2024-09-17-14-21-01/
     RDKit          3D

 40 45  0  0  0  0  0  0  0  0999 V2000
   -7.9040    3.9820   27.1177 C   0  0  0  0  0  0  0  0  0  0  0  0
   -8.2057    2.8231   26.8733 C   0  0  0  0  0  0  0  0  0  0  0  0
   -7.4766    1.7477   27.4593 C   0  0  0  0  0  0  0  0  0  0  0  0
   -8.7468    5.1251   26.6967 C   0  0  0  0  0  0  0  0  0  0  0  0
   -9.7234    4.8589   25.8202 C   0  0  0  0  0  0  0  0  0  0  0  0
   -9.9711    3.5858   25.4266 C   0  0  0  0  0  0  0  0  0  0  0  0
   -9.2266    2.4957   25.9600 C   0  0  0  0  0  0  0  0  0  0  0  0
   -6.2367    1.9389   27.9276 N   0  0  0  0  0  0  0  0  0  0  0  0
   -5.4678    0.8434   28.3484 C   0  0  0  0  0  0  0  0  0  0  0  0
   -5.9633   -0.3860   28.2904 C   0  0  0  0  0  0  0  0  0  0  0  0
   -7.8494    0.3875   27.3604 C   0  0  0  0  0  0  0  0  0  0  0  0
   -7.1952   -0.6106   27.8623 C   0  0  0  0  0  0  0  0  0  0  0  0
   -4.1683    1.2231   28.8214 N   0  0  0  0  0  0  0  0  0  0  0  0
   -8.4252    6.5195   27.1061 C   0  0  0  0  0  0  0  0  0  0  0  0
   -7.9264    6.8327   28.2110 N   0  0  0  0  0  0  0  0  0  0  0  0
   -8.7789    7.5381   26.2888 N   0  0  0  0  0  0  0  0  0  0  0  0
   -3.3636    0.2339   29.3197 C   0  0  0  0  0  0  0  0  0  0  0  0
   -3.8130   -1.0721   29.4225 C   0  0  0  0  0  0  0  0  0  0  0  0
   -5.0672   -1.4015   28.9297 C   0  0  0  0  0  0  0  0  0  0  0  0
   -2.9484   -2.0890   29.9988 C   0  0  0  0  0  0  0  0  0  0  0  0
   -2.0269   -2.4640   29.3948 C   0  0  0  0  0  0  0  0  0  0  0  0
   -3.3420   -2.5396   31.3027 C   0  0  0  0  0  0  0  0  0  0  0  0
   -4.1444   -1.9954   32.1354 C   0  0  0  0  0  0  0  0  0  0  0  0
   -4.2326   -0.7457   32.3987 C   0  0  0  0  0  0  0  0  0  0  0  0
   -5.2796   -0.2369   33.2549 N   0  0  0  0  0  0  0  0  0  0  0  0
   -4.6212   -2.7780   33.2974 C   0  0  0  0  0  0  0  0  0  0  0  0
   -5.7281   -2.3373   34.0886 C   0  0  0  0  0  0  0  0  0  0  0  0
   -5.8774   -0.9335   34.1141 C   0  0  0  0  0  0  0  0  0  0  0  0
   -1.2018   -3.5657   29.7640 C   0  0  0  0  0  0  0  0  0  0  0  0
   -1.4478   -4.0743   31.0499 C   0  0  0  0  0  0  0  0  0  0  0  0
   -2.4478   -3.5835   31.8287 C   0  0  0  0  0  0  0  0  0  0  0  0
   -6.4647   -3.1701   34.9343 C   0  0  0  0  0  0  0  0  0  0  0  0
   -7.6564   -3.5388   34.5181 N   0  0  0  0  0  0  0  0  0  0  0  0
   -8.0469   -4.6830   34.3055 C   0  0  0  0  0  0  0  0  0  0  0  0
   -9.3790   -4.9463   33.8110 C   0  0  0  0  0  0  0  0  0  0  0  0
  -10.1287   -3.8761   33.5459 C   0  0  0  0  0  0  0  0  0  0  0  0
   -9.7001   -2.5326   33.6345 C   0  0  0  0  0  0  0  0  0  0  0  0
   -8.4351   -2.3574   34.1317 C   0  0  0  0  0  0  0  0  0  0  0  0
   -5.5739   -2.7545   28.9838 C   0  0  0  0  0  0  0  0  0  0  0  0
   -6.2951   -3.1967   30.1262 C   0  0  0  0  0  0  0  0  0  0  0  0
  2  3  1  0
  4 14  1  0
 14 15  2  0
 14 16  1  0
 18 20  1  0
 22 23  1  0
 27 32  1  0
 32 33  1  0
 33 34  1  0
 35 36  1  0
 33 38  1  0
 37 38  1  0
 19 39  1  0
 39 40  1  0
 34 35  1  0
 36 37  1  0
 23 24  2  0
 24 25  1  0
 25 28  2  0
 28 27  1  0
 27 26  2  0
 26 23  1  0
  1  2  2  0
  2  7  1  0
  7  6  2  0
  6  5  1  0
  5  4  2  0
  4  1  1  0
 20 21  2  0
 21 29  1  0
 29 30  2  0
 30 31  1  0
 31 22  2  0
 22 20  1  0
  3  8  2  0
  8  9  1  0
 10 12  1  0
 12 11  2  0
 11  3  1  0
  9 10  2  0
 10 19  1  0
 19 18  2  0
 18 17  1  0
 17 13  2  0
 13  9  1  0
M  END
$$$$
