No_5738-complexes_sdf/6BKW-FPZ/2024-09-17-14-21-01/
     RDKit          3D

 25 27  0  0  0  0  0  0  0  0999 V2000
   -7.7129    4.2099   27.0854 C   0  0  0  0  0  0  0  0  0  0  0  0
   -8.2112    3.0637   26.9225 C   0  0  0  0  0  0  0  0  0  0  0  0
   -8.5108    5.3904   26.9436 C   0  0  0  0  0  0  0  0  0  0  0  0
   -7.9752    6.6981   27.2112 C   0  0  0  0  0  0  0  0  0  0  0  0
   -7.4938    1.8178   27.3608 C   0  0  0  0  0  0  0  0  0  0  0  0
   -6.1616    2.0743   27.7406 C   0  0  0  0  0  0  0  0  0  0  0  0
   -5.3842    0.9111   28.1468 C   0  0  0  0  0  0  0  0  0  0  0  0
   -5.9508   -0.3230   28.1725 C   0  0  0  0  0  0  0  0  0  0  0  0
   -7.9245    0.5644   27.3513 C   0  0  0  0  0  0  0  0  0  0  0  0
   -7.2288   -0.4857   27.7892 C   0  0  0  0  0  0  0  0  0  0  0  0
   -9.2056    2.9807   25.8676 C   0  0  0  0  0  0  0  0  0  0  0  0
   -9.9725    4.0439   25.5171 C   0  0  0  0  0  0  0  0  0  0  0  0
   -9.4647    5.3235   25.9443 C   0  0  0  0  0  0  0  0  0  0  0  0
   -3.9595    1.1682   28.5795 C   0  0  0  0  0  0  0  0  0  0  0  0
   -3.0821    0.0120   28.2486 C   0  0  0  0  0  0  0  0  0  0  0  0
   -2.5033   -0.1767   27.0338 C   0  0  0  0  0  0  0  0  0  0  0  0
   -2.8561    0.7373   25.9949 C   0  0  0  0  0  0  0  0  0  0  0  0
   -8.6482    7.8005   26.9518 O   0  0  0  0  0  0  0  0  0  0  0  0
   -6.6919    6.8138   27.6092 O   0  0  0  0  0  0  0  0  0  0  0  0
   -2.6307   -0.7750   29.4252 C   0  0  0  0  0  0  0  0  0  0  0  0
   -3.1336   -0.5474   30.6901 C   0  0  0  0  0  0  0  0  0  0  0  0
   -2.5958   -1.2581   31.7969 C   0  0  0  0  0  0  0  0  0  0  0  0
   -1.6626   -2.2724   31.5062 C   0  0  0  0  0  0  0  0  0  0  0  0
   -1.1802   -2.4746   30.2754 C   0  0  0  0  0  0  0  0  0  0  0  0
   -1.6200   -1.7100   29.2049 C   0  0  0  0  0  0  0  0  0  0  0  0
  3  4  1  0
  2  5  1  0
  7 14  1  0
 14 15  1  0
 15 16  2  3
 16 17  1  0
  4 18  1  0
  4 19  2  0
 15 20  1  0
  5  6  2  0
  6  7  1  0
  7  8  2  0
  8 10  1  0
 10  9  2  0
  9  5  1  0
  1  2  2  0
  2 11  1  0
 11 12  2  0
 12 13  1  0
 13  3  2  0
  3  1  1  0
 20 21  2  0
 21 22  1  0
 22 23  2  0
 23 24  1  0
 24 25  2  0
 25 20  1  0
M  END
$$$$
