No_5992-complexes_sdf/6BKW-FPZ/2024-09-17-14-21-01/
     RDKit          3D

 14 14  0  0  0  0  0  0  0  0999 V2000
   -7.7129    4.2099   27.0854 C   0  0  0  0  0  0  0  0  0  0  0  0
   -8.9133    4.4736   27.0998 C   0  0  0  0  0  0  0  0  0  0  0  0
   -9.7134    3.9633   26.0300 C   0  0  0  0  0  0  0  0  0  0  0  0
   -7.1708    2.9509   26.6517 C   0  0  0  0  0  0  0  0  0  0  0  0
   -8.1338    2.1226   26.0346 C   0  0  0  0  0  0  0  0  0  0  0  0
   -9.3388    2.6863   25.6841 C   0  0  0  0  0  0  0  0  0  0  0  0
   -9.2449    5.8623   27.3697 O   0  0  0  0  0  0  0  0  0  0  0  0
   -7.7520    0.7699   25.6916 C   0  0  0  0  0  0  0  0  0  0  0  0
   -8.4741   -0.1544   25.8223 Cl  0  0  0  0  0  0  0  0  0  0  0  0
   -8.5460    6.9772   26.9776 C   0  0  0  0  0  0  0  0  0  0  0  0
   -7.1389    6.9244   27.1151 C   0  0  0  0  0  0  0  0  0  0  0  0
   -9.1977    8.1159   26.5594 C   0  0  0  0  0  0  0  0  0  0  0  0
   -6.5893    8.1931   26.9026 N   0  0  0  0  0  0  0  0  0  0  0  0
   -6.4364    0.6191   26.0348 O   0  0  0  0  0  0  0  0  0  0  0  0
  2  7  1  0
  5  8  1  0
  8  9  1  0
  7 10  1  0
 10 11  2  3
 10 12  1  0
 11 13  1  0
  8 14  2  0
  1  2  2  0
  2  3  1  0
  3  6  2  0
  6  5  1  0
  5  4  2  0
  4  1  1  0
M  END
$$$$
