No_5327-complexes_sdf/6BKW-FPZ/2024-09-17-14-21-01/
     RDKit          3D

 39 43  0  0  0  0  0  0  0  0999 V2000
   -7.9040    3.9820   27.1177 C   0  0  0  0  0  0  0  0  0  0  0  0
   -7.8663    4.8694   27.9238 C   0  0  0  0  0  0  0  0  0  0  0  0
   -9.0491    3.8523   26.2542 C   0  0  0  0  0  0  0  0  0  0  0  0
   -8.7661    5.9491   27.9690 C   0  0  0  0  0  0  0  0  0  0  0  0
   -9.9279    4.8544   26.1938 C   0  0  0  0  0  0  0  0  0  0  0  0
   -9.8044    5.9413   27.0782 C   0  0  0  0  0  0  0  0  0  0  0  0
   -6.9762    2.7951   27.2180 C   0  0  0  0  0  0  0  0  0  0  0  0
   -7.2695    1.6387   26.7010 F   0  0  0  0  0  0  0  0  0  0  0  0
   -6.6743    2.5946   28.5354 F   0  0  0  0  0  0  0  0  0  0  0  0
  -10.9709    4.8073   25.2146 C   0  0  0  0  0  0  0  0  0  0  0  0
  -10.5869    4.6833   23.8630 C   0  0  0  0  0  0  0  0  0  0  0  0
  -11.5037    4.5410   22.8463 C   0  0  0  0  0  0  0  0  0  0  0  0
  -12.8751    4.4093   23.2065 C   0  0  0  0  0  0  0  0  0  0  0  0
  -13.2288    4.4809   24.5490 C   0  0  0  0  0  0  0  0  0  0  0  0
  -12.2813    4.6453   25.5553 C   0  0  0  0  0  0  0  0  0  0  0  0
  -11.0640    4.4518   21.4806 C   0  0  0  0  0  0  0  0  0  0  0  0
   -9.7490    4.3997   21.2266 C   0  0  0  0  0  0  0  0  0  0  0  0
  -12.0679    3.6057   20.7563 C   0  0  0  0  0  0  0  0  0  0  0  0
  -11.8220    2.5703   20.4464 C   0  0  0  0  0  0  0  0  0  0  0  0
   -9.3186    3.4518   20.2076 C   0  0  0  0  0  0  0  0  0  0  0  0
  -10.3144    2.5322   19.7714 C   0  0  0  0  0  0  0  0  0  0  0  0
   -5.7316    3.1190   26.8811 F   0  0  0  0  0  0  0  0  0  0  0  0
  -14.6637    4.3888   24.8711 C   0  0  0  0  0  0  0  0  0  0  0  0
  -15.5382    4.3599   24.1106 N   0  0  0  0  0  0  0  0  0  0  0  0
  -14.9222    4.0304   26.1344 O   0  0  0  0  0  0  0  0  0  0  0  0
  -16.9835    4.2383   24.3370 C   0  0  0  0  0  0  0  0  0  0  0  0
  -17.5904    3.9197   25.0687 C   0  0  0  0  0  0  0  0  0  0  0  0
  -17.6725    4.6550   22.9669 C   0  0  0  0  0  0  0  0  0  0  0  0
  -18.9725    3.7410   25.1938 C   0  0  0  0  0  0  0  0  0  0  0  0
  -16.9589    5.0352   21.7892 C   0  0  0  0  0  0  0  0  0  0  0  0
  -19.6018    4.1272   23.9627 C   0  0  0  0  0  0  0  0  0  0  0  0
  -18.9784    4.5395   22.9113 C   0  0  0  0  0  0  0  0  0  0  0  0
  -16.3310    6.1726   21.7646 N   0  0  0  0  0  0  0  0  0  0  0  0
  -16.8162    4.1968   20.6844 C   0  0  0  0  0  0  0  0  0  0  0  0
  -16.0478    4.5919   19.5748 C   0  0  0  0  0  0  0  0  0  0  0  0
  -15.9120    3.7210   18.5224 C   0  0  0  0  0  0  0  0  0  0  0  0
  -16.4637    2.4616   18.6233 C   0  0  0  0  0  0  0  0  0  0  0  0
  -17.2226    2.0896   19.7197 C   0  0  0  0  0  0  0  0  0  0  0  0
  -17.3463    2.9228   20.7693 C   0  0  0  0  0  0  0  0  0  0  0  0
  1  7  1  0
  7  8  1  0
  7  9  1  0
  5 10  1  0
 12 16  1  0
  7 22  1  0
 14 23  1  0
 23 24  1  0
 23 25  2  0
 24 26  1  0
 28 30  1  0
 30 33  2  0
 30 34  1  0
 16 17  2  0
 17 20  1  0
 20 21  2  0
 21 19  1  0
 19 18  2  0
 18 16  1  0
 34 35  2  0
 35 36  1  0
 36 37  2  0
 37 38  1  0
 38 39  2  0
 39 34  1  0
 10 11  2  0
 11 12  1  0
 12 13  2  0
 13 14  1  0
 14 15  2  0
 15 10  1  0
  1  2  2  0
  2  4  1  0
  4  6  2  0
  6  5  1  0
  5  3  2  0
  3  1  1  0
 26 27  2  0
 27 29  1  0
 29 31  2  0
 31 32  1  0
 32 28  2  0
 28 26  1  0
M  END
$$$$
