No_5723-complexes_sdf/6BKW-FPZ/2024-09-17-14-21-01/
     RDKit          3D

 15 15  0  0  0  0  0  0  0  0999 V2000
   -7.7129    4.2099   27.0854 C   0  0  0  0  0  0  0  0  0  0  0  0
   -8.2112    3.0637   26.9225 C   0  0  0  0  0  0  0  0  0  0  0  0
   -8.5108    5.3904   26.9436 C   0  0  0  0  0  0  0  0  0  0  0  0
   -9.7256    5.1955   26.3518 C   0  0  0  0  0  0  0  0  0  0  0  0
   -9.4995    2.8258   26.4878 C   0  0  0  0  0  0  0  0  0  0  0  0
  -10.2542    3.9691   26.2055 C   0  0  0  0  0  0  0  0  0  0  0  0
   -7.9168    6.7086   27.1908 C   0  0  0  0  0  0  0  0  0  0  0  0
   -7.3556    1.8215   27.2519 C   0  0  0  0  0  0  0  0  0  0  0  0
   -7.7773    0.5907   27.0987 N   0  0  0  0  0  0  0  0  0  0  0  0
   -6.1842    2.0186   27.6820 F   0  0  0  0  0  0  0  0  0  0  0  0
   -6.9166    6.8914   27.8779 N   0  0  0  0  0  0  0  0  0  0  0  0
   -8.3526    7.8934   26.4228 C   0  0  0  0  0  0  0  0  0  0  0  0
   -8.8065    0.1734   26.5567 C   0  0  0  0  0  0  0  0  0  0  0  0
   -9.2450   -0.7979   26.3655 C   0  0  0  0  0  0  0  0  0  0  0  0
   -9.7004    1.3404   26.1622 C   0  0  0  0  0  0  0  0  0  0  0  0
  3  7  1  0
  2  8  1  0
  8  9  2  3
  8 10  1  0
  7 11  2  0
  7 12  1  0
  9 13  1  0
 13 14  2  0
 13 15  1  0
  1  2  2  0
  2  5  1  0
  5  6  2  0
  6  4  1  0
  4  3  2  0
  3  1  1  0
M  END
$$$$
