No_5722-complexes_sdf/6BKW-FPZ/2024-09-17-14-21-01/
     RDKit          3D

 18 20  0  0  0  0  0  0  0  0999 V2000
   -7.9040    3.9820   27.1177 C   0  0  0  0  0  0  0  0  0  0  0  0
   -8.2057    2.8231   26.8733 C   0  0  0  0  0  0  0  0  0  0  0  0
   -8.7695    5.0740   26.7916 C   0  0  0  0  0  0  0  0  0  0  0  0
   -8.4337    6.4678   27.0913 C   0  0  0  0  0  0  0  0  0  0  0  0
   -7.3775    1.6806   27.3986 C   0  0  0  0  0  0  0  0  0  0  0  0
   -7.6795    0.3394   27.2177 C   0  0  0  0  0  0  0  0  0  0  0  0
   -8.9653    0.1016   26.6342 C   0  0  0  0  0  0  0  0  0  0  0  0
   -9.7377    1.1060   26.1275 C   0  0  0  0  0  0  0  0  0  0  0  0
   -9.3779    2.4385   26.3040 C   0  0  0  0  0  0  0  0  0  0  0  0
   -7.1658    6.7090   27.6671 C   0  0  0  0  0  0  0  0  0  0  0  0
   -6.8135    4.5605   27.7639 N   0  0  0  0  0  0  0  0  0  0  0  0
   -6.4829    5.7149   28.1205 C   0  0  0  0  0  0  0  0  0  0  0  0
   -6.8707   -0.7028   27.7610 C   0  0  0  0  0  0  0  0  0  0  0  0
   -7.3217   -1.8079   28.3606 C   0  0  0  0  0  0  0  0  0  0  0  0
   -5.4747   -0.3808   27.7775 C   0  0  0  0  0  0  0  0  0  0  0  0
   -4.6508   -1.1677   28.3016 N   0  0  0  0  0  0  0  0  0  0  0  0
   -5.0437   -2.3525   28.9064 C   0  0  0  0  0  0  0  0  0  0  0  0
   -6.3888   -2.6567   28.9711 C   0  0  0  0  0  0  0  0  0  0  0  0
  1  2  1  0
  6 13  1  0
  2  5  2  0
  5  6  1  0
  6  7  2  0
  7  8  1  0
  8  9  2  0
  9  2  1  0
 13 14  2  0
 14 18  1  0
 18 17  2  0
 17 16  1  0
 16 15  2  0
 15 13  1  0
  1  3  2  0
  3  4  1  0
  4 10  2  0
 10 12  1  0
 12 11  2  0
 11  1  1  0
M  END
$$$$
