No_5128-complexes_sdf/6BKW-FPZ/2024-09-17-14-21-01/
     RDKit          3D

 28 30  0  0  0  0  0  0  0  0999 V2000
   -7.2496    3.8871   27.4508 C   0  0  0  0  0  0  0  0  0  0  0  0
   -7.6161    2.7143   27.1523 C   0  0  0  0  0  0  0  0  0  0  0  0
   -8.8302    2.4659   26.5056 C   0  0  0  0  0  0  0  0  0  0  0  0
   -8.1584    5.0090   27.3234 C   0  0  0  0  0  0  0  0  0  0  0  0
   -9.3788    4.7965   26.7695 C   0  0  0  0  0  0  0  0  0  0  0  0
   -9.7028    3.5649   26.3276 C   0  0  0  0  0  0  0  0  0  0  0  0
   -6.5643    1.3669   27.4061 Cl  0  0  0  0  0  0  0  0  0  0  0  0
   -7.7207    6.2593   27.7149 N   0  0  0  0  0  0  0  0  0  0  0  0
  -11.0059    3.3386   25.6655 C   0  0  1  0  0  0  0  0  0  0  0  0
  -12.1336    3.2562   26.3566 C   0  0  0  0  0  0  0  0  0  0  0  0
  -12.0382    3.4070   27.8364 C   0  0  0  0  0  0  0  0  0  0  0  0
  -13.2527    3.3468   28.6549 C   0  0  0  0  0  0  0  0  0  0  0  0
  -14.4499    3.2236   28.0014 C   0  0  0  0  0  0  0  0  0  0  0  0
  -14.5545    3.1869   26.6420 C   0  0  0  0  0  0  0  0  0  0  0  0
  -13.4217    3.2713   25.8278 C   0  0  0  0  0  0  0  0  0  0  0  0
  -11.0266    4.2397   24.4427 C   0  0  0  0  0  0  0  0  0  0  0  0
  -10.4982    3.5083   23.2823 C   0  0  0  0  0  0  0  0  0  0  0  0
  -10.6717    4.1309   22.0378 C   0  0  0  0  0  0  0  0  0  0  0  0
  -11.2579    3.5661   21.2236 C   0  0  0  0  0  0  0  0  0  0  0  0
  -11.3119    2.1178   21.1076 C   0  0  0  0  0  0  0  0  0  0  0  0
  -10.7825    1.4400   22.2598 C   0  0  0  0  0  0  0  0  0  0  0  0
  -10.6633    0.0310   22.3311 C   0  0  0  0  0  0  0  0  0  0  0  0
  -10.3510    2.2002   23.3262 C   0  0  0  0  0  0  0  0  0  0  0  0
   -9.7009   -0.5576   22.4874 N   0  0  0  0  0  0  0  0  0  0  0  0
   -8.6350   -0.1279   23.0536 C   0  0  0  0  0  0  0  0  0  0  0  0
   -7.4850   -0.9516   23.1932 C   0  0  0  0  0  0  0  0  0  0  0  0
   -7.2265   -1.6999   22.0878 C   0  0  0  0  0  0  0  0  0  0  0  0
   -8.2310   -2.1070   21.2090 C   0  0  0  0  0  0  0  0  0  0  0  0
  2  7  1  0
  4  8  1  0
  6  9  1  0
  9 16  1  6
 16 17  1  0
 21 22  1  0
 22 24  2  3
 24 25  1  0
 25 26  2  3
 26 27  1  0
 27 28  2  0
  9 10  1  0
 17 18  2  0
 18 19  1  0
 19 20  2  0
 20 21  1  0
 21 23  2  0
 23 17  1  0
  1  2  2  0
  2  3  1  0
  3  6  2  0
  6  5  1  0
  5  4  2  0
  4  1  1  0
 10 11  2  0
 11 12  1  0
 12 13  2  0
 13 14  1  0
 14 15  2  0
 15 10  1  0
M  END
$$$$
