No_5336-complexes_sdf/6BKW-FPZ/2024-09-17-14-21-01/
     RDKit          3D

 15 16  0  0  0  0  0  0  0  0999 V2000
   -7.7129    4.2099   27.0854 C   0  0  0  0  0  0  0  0  0  0  0  0
   -7.7814    5.1722   27.8972 C   0  0  0  0  0  0  0  0  0  0  0  0
   -8.8998    3.8713   26.3707 C   0  0  0  0  0  0  0  0  0  0  0  0
   -8.9563    2.6796   25.5490 C   0  0  0  0  0  0  0  0  0  0  0  0
   -8.8131    6.1334   27.9344 C   0  0  0  0  0  0  0  0  0  0  0  0
   -9.9804    5.8121   27.1929 C   0  0  0  0  0  0  0  0  0  0  0  0
   -9.9861    4.6836   26.4532 C   0  0  0  0  0  0  0  0  0  0  0  0
   -9.7373    1.7168   26.0677 C   0  0  0  0  0  0  0  0  0  0  0  0
  -10.6508    1.6786   26.7993 C   0  0  0  0  0  0  0  0  0  0  0  0
  -11.3251    0.4623   27.3517 C   0  0  0  0  0  0  0  0  0  0  0  0
  -10.8084   -0.7097   26.8758 C   0  0  0  0  0  0  0  0  0  0  0  0
   -9.3041    0.2665   25.6836 C   0  0  0  0  0  0  0  0  0  0  0  0
   -9.8817   -0.8169   26.0878 C   0  0  0  0  0  0  0  0  0  0  0  0
   -7.9292    0.1355   24.5267 Cl  0  0  0  0  0  0  0  0  0  0  0  0
   -6.7057    5.5981   28.6305 F   0  0  0  0  0  0  0  0  0  0  0  0
  3  4  1  0
  4  8  1  0
 12 14  1  0
  2 15  1  0
  1  2  2  0
  2  5  1  0
  5  6  2  0
  6  7  1  0
  7  3  2  0
  3  1  1  0
  8  9  2  0
  9 10  1  0
 10 11  2  0
 11 13  1  0
 13 12  2  0
 12  8  1  0
M  END
$$$$
