No_556-complexes_sdf/6BKW-FPZ/2024-09-17-14-21-01/
     RDKit          3D

 26 29  0  0  0  0  0  0  0  0999 V2000
   -7.9040    3.9820   27.1177 C   0  0  0  0  0  0  0  0  0  0  0  0
   -9.0711    4.3164   27.0630 C   0  0  0  0  0  0  0  0  0  0  0  0
   -9.5294    5.4517   27.7215 C   0  0  0  0  0  0  0  0  0  0  0  0
   -7.4336    2.7132   26.5681 C   0  0  0  0  0  0  0  0  0  0  0  0
   -8.3353    1.8569   26.0442 C   0  0  0  0  0  0  0  0  0  0  0  0
   -9.6477    2.2853   25.9146 C   0  0  0  0  0  0  0  0  0  0  0  0
  -10.0346    3.4497   26.4483 C   0  0  2  0  0  0  0  0  0  0  0  0
   -7.8750    0.5509   25.5918 C   0  0  0  0  0  0  0  0  0  0  0  0
   -7.0299   -0.1710   26.4003 C   0  0  0  0  0  0  0  0  0  0  0  0
   -6.5725   -1.4255   26.0284 C   0  0  0  0  0  0  0  0  0  0  0  0
   -6.8887   -1.8339   24.7555 C   0  0  0  0  0  0  0  0  0  0  0  0
   -8.0851   -0.0318   24.3997 C   0  0  0  0  0  0  0  0  0  0  0  0
   -7.6193   -1.1115   23.9133 C   0  0  0  0  0  0  0  0  0  0  0  0
   -6.8438    4.7439   27.9257 C   0  0  0  0  0  0  0  0  0  0  0  0
   -7.2957    6.0145   28.4233 C   0  0  0  0  0  0  0  0  0  0  0  0
   -8.6354    6.3550   28.3023 C   0  0  0  0  0  0  0  0  0  0  0  0
  -11.4108    3.8437   26.1551 C   0  0  0  0  0  0  0  0  0  0  0  0
  -12.2866    3.7033   27.2161 C   0  0  0  0  0  0  0  0  0  0  0  0
  -11.9439    3.4291   28.4312 C   0  0  0  0  0  0  0  0  0  0  0  0
  -12.8968    2.8640   29.2799 C   0  0  0  0  0  0  0  0  0  0  0  0
  -14.2178    2.9918   29.1168 C   0  0  0  0  0  0  0  0  0  0  0  0
  -14.6252    3.4591   27.8240 C   0  0  0  0  0  0  0  0  0  0  0  0
  -13.7085    3.8340   26.8677 C   0  0  0  0  0  0  0  0  0  0  0  0
  -11.6591    4.3251   25.0431 O   0  0  0  0  0  0  0  0  0  0  0  0
  -10.4421    1.5312   25.3010 O   0  0  0  0  0  0  0  0  0  0  0  0
  -15.4908    2.4950   30.3920 Br  0  0  0  0  0  0  0  0  0  0  0  0
  1  4  1  0
  4  5  1  0
  5  6  1  0
  2  7  1  0
  6  7  1  0
  5  8  1  0
  7 17  1  6
 17 18  1  0
 17 24  2  0
  6 25  2  0
 21 26  1  0
 18 19  2  0
 19 20  1  0
 20 21  2  0
 21 22  1  0
 22 23  2  0
 23 18  1  0
  1  2  1  0
  2  3  2  0
  3 16  1  0
 16 15  2  0
 15 14  1  0
 14  1  2  0
  8  9  2  0
  9 10  1  0
 10 11  2  0
 11 13  1  0
 13 12  2  0
 12  8  1  0
M  END
$$$$
