No_5987-complexes_sdf/6BKW-FPZ/2024-09-17-14-21-01/
     RDKit          3D

 33 36  0  0  0  0  0  0  0  0999 V2000
   -7.9040    3.9820   27.1177 C   0  0  0  0  0  0  0  0  0  0  0  0
   -8.2057    2.8231   26.8733 C   0  0  0  0  0  0  0  0  0  0  0  0
   -7.4766    1.7477   27.4593 C   0  0  0  0  0  0  0  0  0  0  0  0
   -8.7468    5.1251   26.6967 C   0  0  0  0  0  0  0  0  0  0  0  0
   -9.7234    4.8589   25.8202 C   0  0  0  0  0  0  0  0  0  0  0  0
   -9.9711    3.5858   25.4266 C   0  0  0  0  0  0  0  0  0  0  0  0
   -9.2266    2.4957   25.9600 C   0  0  0  0  0  0  0  0  0  0  0  0
   -6.2339    1.9237   27.9258 N   0  0  0  0  0  0  0  0  0  0  0  0
   -5.2766    0.8676   28.0415 C   0  0  0  0  0  0  0  0  0  0  0  0
   -5.7670   -0.3801   27.9351 C   0  0  0  0  0  0  0  0  0  0  0  0
   -7.8068    0.3758   27.2194 C   0  0  0  0  0  0  0  0  0  0  0  0
   -7.0291   -0.6238   27.5403 C   0  0  0  0  0  0  0  0  0  0  0  0
   -4.0750    1.2534   28.5549 N   0  0  0  0  0  0  0  0  0  0  0  0
   -8.4159    6.5145   27.1170 C   0  0  0  0  0  0  0  0  0  0  0  0
   -8.7563    7.5716   26.4670 N   0  0  0  0  0  0  0  0  0  0  0  0
   -7.5198    6.5726   28.1385 N   0  0  0  0  0  0  0  0  0  0  0  0
  -11.1848    3.2841   24.2804 Cl  0  0  0  0  0  0  0  0  0  0  0  0
   -7.5331   -1.9942   27.4084 C   0  0  2  0  0  0  0  0  0  0  0  0
   -8.5870   -2.1952   26.9698 N   0  0  0  0  0  0  0  0  0  0  0  0
   -9.5738   -1.7704   27.1100 C   0  0  0  0  0  0  0  0  0  0  0  0
  -10.8143   -2.3259   26.3871 C   0  0  0  0  0  0  0  0  0  0  0  0
   -8.7614   -2.7257   25.4954 C   0  0  0  0  0  0  0  0  0  0  0  0
  -10.0772   -2.9672   25.3123 C   0  0  0  0  0  0  0  0  0  0  0  0
  -10.7418   -3.6346   24.2696 C   0  0  0  0  0  0  0  0  0  0  0  0
  -10.1609   -4.2472   23.4425 O   0  0  0  0  0  0  0  0  0  0  0  0
  -11.9722   -3.6433   24.0820 O   0  0  0  0  0  0  0  0  0  0  0  0
   -7.5044   -2.7657   29.0386 Cl  0  0  0  0  0  0  0  0  0  0  0  0
   -6.2884   -2.7744   26.7131 C   0  0  0  0  0  0  0  0  0  0  0  0
   -5.6054   -3.7028   27.4878 C   0  0  0  0  0  0  0  0  0  0  0  0
   -5.9297   -2.3977   25.4598 C   0  0  0  0  0  0  0  0  0  0  0  0
   -4.2518   -3.7080   27.2042 C   0  0  0  0  0  0  0  0  0  0  0  0
   -4.5242   -2.6056   25.0581 C   0  0  0  0  0  0  0  0  0  0  0  0
   -3.7402   -3.3353   25.9079 C   0  0  0  0  0  0  0  0  0  0  0  0
  2  3  1  0
  9 13  1  0
  4 14  1  0
 14 15  2  0
 14 16  1  0
  6 17  1  0
 12 18  1  0
 18 19  1  0
 19 20  1  0
 20 21  2  0
 19 22  1  0
 21 23  1  0
 22 23  2  0
 23 24  1  0
 24 25  1  0
 24 26  2  0
 18 27  1  1
 18 28  1  0
  3  8  2  0
  8  9  1  0
  9 10  2  0
 10 12  1  0
 12 11  2  0
 11  3  1  0
  1  2  2  0
  2  7  1  0
  7  6  2  0
  6  5  1  0
  5  4  2  0
  4  1  1  0
 28 29  2  0
 29 31  1  0
 31 33  2  0
 33 32  1  0
 32 30  2  0
 30 28  1  0
M  END
$$$$
