No_5748-complexes_sdf/6BKW-FPZ/2024-09-17-14-21-01/
     RDKit          3D

 32 36  0  0  0  0  0  0  0  0999 V2000
   -7.7129    4.2099   27.0854 C   0  0  0  0  0  0  0  0  0  0  0  0
   -8.2112    3.0637   26.9225 C   0  0  0  0  0  0  0  0  0  0  0  0
   -8.5108    5.3904   26.9436 C   0  0  0  0  0  0  0  0  0  0  0  0
   -7.9752    6.6981   27.2112 C   0  0  0  0  0  0  0  0  0  0  0  0
   -7.4938    1.8178   27.3608 C   0  0  0  0  0  0  0  0  0  0  0  0
   -7.9553    0.5308   27.1577 C   0  0  0  0  0  0  0  0  0  0  0  0
   -9.3187    0.4484   26.7039 C   0  0  0  0  0  0  0  0  0  0  0  0
  -10.0295    1.5648   26.3528 C   0  0  0  0  0  0  0  0  0  0  0  0
   -9.4848    2.8460   26.4847 C   0  0  0  0  0  0  0  0  0  0  0  0
   -9.8217    5.2922   26.4346 C   0  0  0  0  0  0  0  0  0  0  0  0
  -10.3124    3.9854   26.2055 C   0  0  0  0  0  0  0  0  0  0  0  0
   -8.6135    7.8052   26.8397 N   0  0  0  0  0  0  0  0  0  0  0  0
   -6.8434    6.7773   27.8118 O   0  0  0  0  0  0  0  0  0  0  0  0
   -7.3086   -0.6736   27.5751 C   0  0  0  0  0  0  0  0  0  0  0  0
   -5.9933   -0.5341   27.9974 C   0  0  0  0  0  0  0  0  0  0  0  0
   -5.3247    0.7367   27.9558 C   0  0  0  0  0  0  0  0  0  0  0  0
   -6.0605    1.9180   27.7097 C   0  0  0  0  0  0  0  0  0  0  0  0
   -3.9372    0.8996   28.4401 C   0  0  0  0  0  0  0  0  0  0  0  0
   -3.0885    0.0466   28.2898 N   0  0  0  0  0  0  0  0  0  0  0  0
   -2.2441   -0.2060   27.4890 C   0  0  1  0  0  0  0  0  0  0  0  0
   -1.2785   -1.2488   27.5755 C   0  0  0  0  0  0  0  0  0  0  0  0
   -3.0069   -0.9043   29.4633 C   0  0  2  0  0  0  0  0  0  0  0  0
   -3.8646   -0.6566   30.6287 C   0  0  0  0  0  0  0  0  0  0  0  0
   -1.9486   -1.8086   29.4578 C   0  0  0  0  0  0  0  0  0  0  0  0
   -1.0453   -1.9365   28.5986 C   0  0  0  0  0  0  0  0  0  0  0  0
   -4.2399   -1.6349   31.4116 C   0  0  0  0  0  0  0  0  0  0  0  0
   -5.1693   -1.3832   32.4898 C   0  0  0  0  0  0  0  0  0  0  0  0
   -5.7673   -2.3550   33.2517 C   0  0  0  0  0  0  0  0  0  0  0  0
   -5.2935   -3.6624   32.9998 C   0  0  0  0  0  0  0  0  0  0  0  0
   -4.4405   -3.9422   32.0386 C   0  0  0  0  0  0  0  0  0  0  0  0
   -3.9412   -2.9993   31.2508 C   0  0  0  0  0  0  0  0  0  0  0  0
   -2.3015    0.6759   26.2265 C   0  0  0  0  0  0  0  0  0  0  0  0
  3  4  1  0
  4 12  1  0
  4 13  2  0
 16 18  1  0
 18 19  1  0
 19 20  1  0
 19 22  1  0
 22 23  1  1
 22 24  1  0
 21 25  1  0
 24 25  1  0
 20 32  1  6
 23 26  1  0
 20 21  1  0
  2  5  1  0
  6  7  1  0
  7  8  2  0
  8  9  1  0
  1  2  2  0
  2  9  1  0
  9 11  2  0
 11 10  1  0
 10  3  2  0
  3  1  1  0
  5  6  2  0
  6 14  1  0
 14 15  2  0
 15 16  1  0
 16 17  2  0
 17  5  1  0
 26 27  2  0
 27 28  1  0
 28 29  2  0
 29 30  1  0
 30 31  2  0
 31 26  1  0
M  END
$$$$
