No_5262-complexes_sdf/6BKW-FPZ/2024-09-17-14-21-01/
     RDKit          3D

 14 15  0  0  0  0  0  0  0  0999 V2000
   -7.9040    3.9820   27.1177 C   0  0  0  0  0  0  0  0  0  0  0  0
   -8.2057    2.8231   26.8733 C   0  0  0  0  0  0  0  0  0  0  0  0
   -7.0130    4.3706   28.1140 C   0  0  0  0  0  0  0  0  0  0  0  0
   -9.3829    2.4374   26.1668 C   0  0  0  0  0  0  0  0  0  0  0  0
  -10.0975    3.4171   25.5988 C   0  0  0  0  0  0  0  0  0  0  0  0
   -9.7085    4.7741   25.7618 C   0  0  0  0  0  0  0  0  0  0  0  0
   -8.7070    5.1118   26.5885 C   0  0  0  0  0  0  0  0  0  0  0  0
   -8.1937    6.3846   27.0284 C   0  0  0  0  0  0  0  0  0  0  0  0
   -6.7460    5.5858   28.6088 C   0  0  0  0  0  0  0  0  0  0  0  0
   -8.8381    7.5662   26.4778 N   0  0  0  0  0  0  0  0  0  0  0  0
   -7.2913    6.5804   28.0364 C   0  0  0  0  0  0  0  0  0  0  0  0
   -7.5516    1.7482   27.4320 F   0  0  0  0  0  0  0  0  0  0  0  0
  -11.3653    3.1301   24.5143 Cl  0  0  0  0  0  0  0  0  0  0  0  0
   -9.7430    0.8044   25.7461 Cl  0  0  0  0  0  0  0  0  0  0  0  0
  8 10  1  0
  2 12  1  0
  5 13  1  0
  4 14  1  0
  1  3  1  0
  3  9  2  0
  9 11  1  0
 11  8  2  0
  8  7  1  0
  1  2  2  0
  2  4  1  0
  4  5  2  0
  5  6  1  0
  6  7  2  0
  7  1  1  0
M  END
$$$$
