No_5175-complexes_sdf/6BKW-FPZ/2024-09-17-14-21-01/
     RDKit          3D

 19 21  0  0  0  0  0  0  0  0999 V2000
   -7.2496    3.8871   27.4508 C   0  0  0  0  0  0  0  0  0  0  0  0
   -7.9379    4.9063   27.8518 C   0  0  0  0  0  0  0  0  0  0  0  0
   -9.3376    4.8647   27.7795 C   0  0  0  0  0  0  0  0  0  0  0  0
   -7.7973    2.6523   27.3001 C   0  0  0  0  0  0  0  0  0  0  0  0
   -9.2126    2.5701   27.2115 C   0  0  0  0  0  0  0  0  0  0  0  0
   -9.9488    3.6640   27.5048 C   0  0  0  0  0  0  0  0  0  0  0  0
   -7.1801    1.5067   27.0138 O   0  0  0  0  0  0  0  0  0  0  0  0
   -7.5546    0.4577   26.4252 C   0  0  0  0  0  0  0  0  0  0  0  0
   -8.3175    0.5020   25.4321 C   0  0  0  0  0  0  0  0  0  0  0  0
   -8.6094   -0.6661   24.7930 C   0  0  0  0  0  0  0  0  0  0  0  0
   -8.0686   -1.8158   25.1827 C   0  0  0  0  0  0  0  0  0  0  0  0
   -6.9464   -0.7963   26.6222 C   0  0  0  0  0  0  0  0  0  0  0  0
   -7.2123   -1.9065   26.1276 C   0  0  0  0  0  0  0  0  0  0  0  0
  -11.4484    3.5741   27.6539 C   0  0  1  0  0  0  0  0  0  0  0  0
  -12.1688    4.4497   27.0624 C   0  0  0  0  0  0  0  0  0  0  0  0
  -12.0673    2.5232   28.3625 C   0  0  0  0  0  0  0  0  0  0  0  0
  -11.7400    1.3646   28.3926 C   0  0  0  0  0  0  0  0  0  0  0  0
  -10.7761    0.7407   27.5298 C   0  0  0  0  0  0  0  0  0  0  0  0
   -9.7550    1.2828   27.2893 C   0  0  0  0  0  0  0  0  0  0  0  0
  4  7  1  0
  7  8  1  0
  6 14  1  0
 14 15  1  6
 14 16  1  0
 16 17  2  0
 17 18  1  0
  5 19  1  0
 18 19  2  0
  1  2  2  0
  2  3  1  0
  3  6  2  0
  6  5  1  0
  5  4  2  0
  4  1  1  0
  8  9  2  0
  9 10  1  0
 10 11  2  0
 11 13  1  0
 13 12  2  0
 12  8  1  0
M  END
$$$$
