No_5437-complexes_sdf/6BKW-FPZ/2024-09-17-14-21-01/
     RDKit          3D

 22 24  0  0  0  0  0  0  0  0999 V2000
   -7.9040    3.9820   27.1177 C   0  0  0  0  0  0  0  0  0  0  0  0
   -8.2057    2.8231   26.8733 C   0  0  0  0  0  0  0  0  0  0  0  0
   -8.7695    5.0740   26.7916 C   0  0  0  0  0  0  0  0  0  0  0  0
   -8.4337    6.4678   27.0913 C   0  0  0  0  0  0  0  0  0  0  0  0
   -7.3775    1.6806   27.3986 C   0  0  0  0  0  0  0  0  0  0  0  0
   -7.6888    0.3359   27.2208 C   0  0  0  0  0  0  0  0  0  0  0  0
   -8.9698    0.1146   26.6465 C   0  0  0  0  0  0  0  0  0  0  0  0
   -9.7638    1.1002   26.1528 C   0  0  0  0  0  0  0  0  0  0  0  0
   -9.3953    2.4409   26.3165 C   0  0  0  0  0  0  0  0  0  0  0  0
   -7.3221    6.8223   27.2213 C   0  0  0  0  0  0  0  0  0  0  0  0
   -6.7404    4.6185   27.7641 C   0  0  0  0  0  0  0  0  0  0  0  0
   -6.4899    5.9367   27.9567 C   0  0  0  0  0  0  0  0  0  0  0  0
   -6.8856   -0.6956   27.7740 C   0  0  0  0  0  0  0  0  0  0  0  0
   -5.5577   -0.4170   28.1066 C   0  0  0  0  0  0  0  0  0  0  0  0
   -4.7121   -1.3878   28.7793 C   0  0  0  0  0  0  0  0  0  0  0  0
   -5.2696   -2.5785   29.0836 C   0  0  0  0  0  0  0  0  0  0  0  0
   -7.3350   -1.9188   28.2024 C   0  0  0  0  0  0  0  0  0  0  0  0
   -6.5881   -2.8426   28.8489 C   0  0  0  0  0  0  0  0  0  0  0  0
   -3.3067   -0.9868   29.0682 C   0  0  0  0  0  0  0  0  0  0  0  0
   -2.9595    0.0755   28.6911 F   0  0  0  0  0  0  0  0  0  0  0  0
   -3.1396   -1.0125   30.4618 F   0  0  0  0  0  0  0  0  0  0  0  0
   -2.5048   -1.9335   28.5962 F   0  0  0  0  0  0  0  0  0  0  0  0
  1  2  1  0
  6 13  1  0
 15 19  1  0
 19 20  1  0
 19 21  1  0
 19 22  1  0
  2  5  2  0
  5  6  1  0
  6  7  2  0
  7  8  1  0
  8  9  2  0
  9  2  1  0
 13 14  2  0
 14 15  1  0
 15 16  2  0
 16 18  1  0
 18 17  2  0
 17 13  1  0
  1  3  2  0
  3  4  1  0
  4 10  2  0
 10 12  1  0
 12 11  2  0
 11  1  1  0
M  END
$$$$
