No_5378-complexes_sdf/6BKW-FPZ/2024-09-17-14-21-01/
     RDKit          3D

 15 16  0  0  0  0  0  0  0  0999 V2000
   -7.7129    4.2099   27.0854 C   0  0  0  0  0  0  0  0  0  0  0  0
   -8.9133    4.4736   27.0998 C   0  0  0  0  0  0  0  0  0  0  0  0
   -9.8363    3.8127   27.2418 C   0  0  0  0  0  0  0  0  0  0  0  0
   -7.2995    2.8520   27.3808 C   0  0  0  0  0  0  0  0  0  0  0  0
   -8.3404    1.9507   27.4989 C   0  0  0  0  0  0  0  0  0  0  0  0
   -9.6166    2.3791   27.4719 C   0  0  0  0  0  0  0  0  0  0  0  0
   -9.1683    6.0342   26.9011 C   0  0  0  0  0  0  0  0  0  0  0  0
   -8.9375    6.8545   27.9520 C   0  0  0  0  0  0  0  0  0  0  0  0
   -8.5365    6.4945   25.5790 C   0  0  0  0  0  0  0  0  0  0  0  0
   -8.0062    0.5183   27.7056 C   0  0  0  0  0  0  0  0  0  0  0  0
   -6.6963    0.0782   27.7593 C   0  0  0  0  0  0  0  0  0  0  0  0
   -6.3733   -1.2642   28.0001 C   0  0  0  0  0  0  0  0  0  0  0  0
   -7.4690   -2.1296   28.0823 C   0  0  0  0  0  0  0  0  0  0  0  0
   -8.8375   -0.6285   27.8655 C   0  0  0  0  0  0  0  0  0  0  0  0
   -8.6819   -1.8094   28.1165 C   0  0  0  0  0  0  0  0  0  0  0  0
  2  7  1  0
  7  8  2  0
  7  9  1  0
  5 10  1  0
  1  2  2  0
  2  3  1  0
  3  6  2  0
  6  5  1  0
  5  4  2  0
  4  1  1  0
 10 11  2  0
 11 12  1  0
 12 13  2  0
 13 15  1  0
 15 14  2  0
 14 10  1  0
M  END
$$$$
