No_5937-complexes_sdf/6BKW-FPZ/2024-09-17-14-21-01/
     RDKit          3D

 20 22  0  0  0  0  0  0  0  0999 V2000
   -7.2496    3.8871   27.4508 C   0  0  0  0  0  0  0  0  0  0  0  0
   -7.6161    2.7143   27.1523 C   0  0  0  0  0  0  0  0  0  0  0  0
   -8.6212    2.2239   26.4074 C   0  0  0  0  0  0  0  0  0  0  0  0
   -8.2539    4.9237   27.1712 C   0  0  0  0  0  0  0  0  0  0  0  0
   -8.0299    6.2902   27.5027 C   0  0  0  0  0  0  0  0  0  0  0  0
   -9.4433    4.5560   26.5451 C   0  0  0  0  0  0  0  0  0  0  0  0
   -9.6358    3.2654   26.1683 C   0  0  0  0  0  0  0  0  0  0  0  0
   -8.8736    7.3536   27.0237 C   0  0  0  0  0  0  0  0  0  0  0  0
   -6.5432    1.5654   27.5111 C   0  0  0  0  0  0  0  0  0  0  0  0
   -5.3205    1.9265   28.1262 C   0  0  0  0  0  0  0  0  0  0  0  0
   -4.4003    0.9165   28.4290 C   0  0  0  0  0  0  0  0  0  0  0  0
   -4.7582   -0.4045   28.3623 C   0  0  0  0  0  0  0  0  0  0  0  0
   -6.8409    0.2139   27.4456 C   0  0  0  0  0  0  0  0  0  0  0  0
   -6.0371   -0.7388   27.8565 C   0  0  0  0  0  0  0  0  0  0  0  0
   -3.8304   -1.4581   28.8374 C   0  0  0  0  0  0  0  0  0  0  0  0
   -3.9186   -1.8156   30.0801 C   0  0  0  0  0  0  0  0  0  0  0  0
   -3.0185   -2.5946   30.6592 C   0  0  0  0  0  0  0  0  0  0  0  0
   -1.9474   -3.1071   29.8779 C   0  0  0  0  0  0  0  0  0  0  0  0
   -1.8035   -2.6846   28.5961 C   0  0  0  0  0  0  0  0  0  0  0  0
   -2.7068   -1.7178   28.0235 C   0  0  0  0  0  0  0  0  0  0  0  0
  4  5  1  0
  5  8  2  0
  2  9  1  0
 12 15  1  0
 15 16  2  0
 16 17  1  0
 17 18  2  0
 18 19  1  0
 19 20  2  0
 20 15  1  0
  9 10  2  0
 10 11  1  0
 11 12  2  0
 12 14  1  0
 14 13  2  0
 13  9  1  0
  1  2  2  0
  2  3  1  0
  3  7  2  0
  7  6  1  0
  6  4  2  0
  4  1  1  0
M  END
$$$$
