No_5589-complexes_sdf/6BKW-FPZ/2024-09-17-14-21-01/
     RDKit          3D

 14 16  0  0  0  0  0  0  0  0999 V2000
   -7.2496    3.8871   27.4508 C   0  0  0  0  0  0  0  0  0  0  0  0
   -8.5096    4.0291   27.2770 C   0  0  0  0  0  0  0  0  0  0  0  0
   -9.2669    5.1645   27.5845 C   0  0  0  0  0  0  0  0  0  0  0  0
   -8.4566    6.3212   27.8001 C   0  0  0  0  0  0  0  0  0  0  0  0
   -6.4921    5.0197   27.7961 C   0  0  0  0  0  0  0  0  0  0  0  0
   -7.1702    6.2351   27.9936 C   0  0  0  0  0  0  0  0  0  0  0  0
   -9.3431    2.7525   27.0047 C   0  0  0  0  0  0  0  0  0  0  0  0
   -8.7107    1.5829   26.9484 C   0  0  0  0  0  0  0  0  0  0  0  0
   -9.4308    0.4794   26.5847 C   0  0  0  0  0  0  0  0  0  0  0  0
   -8.8458   -0.8251   26.5808 C   0  0  0  0  0  0  0  0  0  0  0  0
   -7.4718   -0.8892   26.8525 C   0  0  0  0  0  0  0  0  0  0  0  0
   -6.7071    0.1918   27.1190 C   0  0  0  0  0  0  0  0  0  0  0  0
   -7.2706    1.4326   27.2306 C   0  0  0  0  0  0  0  0  0  0  0  0
   -6.5652    2.6850   27.5191 C   0  0  0  0  0  0  0  0  0  0  0  0
  2  7  1  0
  7  8  2  0
 13 14  2  0
 14  1  1  0
  1  2  1  0
  2  3  2  0
  3  4  1  0
  4  6  2  0
  6  5  1  0
  5  1  2  0
  8  9  1  0
  9 10  2  0
 10 11  1  0
 11 12  2  0
 12 13  1  0
 13  8  1  0
M  END
$$$$
