No_5888-complexes_sdf/6BKW-FPZ/2024-09-17-14-21-01/
     RDKit          3D

 18 19  0  0  0  0  0  0  0  0999 V2000
   -7.7129    4.2099   27.0854 C   0  0  0  0  0  0  0  0  0  0  0  0
   -8.9133    4.4736   27.0998 C   0  0  0  0  0  0  0  0  0  0  0  0
   -9.4643    5.5426   27.7628 C   0  0  0  0  0  0  0  0  0  0  0  0
   -6.8373    4.9942   27.9785 C   0  0  0  0  0  0  0  0  0  0  0  0
   -7.3717    6.0428   28.6744 C   0  0  0  0  0  0  0  0  0  0  0  0
   -8.6869    6.3937   28.5345 C   0  0  0  0  0  0  0  0  0  0  0  0
   -9.8077    3.6185   26.2213 C   0  0  0  0  0  0  0  0  0  0  0  0
   -9.9211    2.3431   26.3758 C   0  0  0  0  0  0  0  0  0  0  0  0
  -10.3690    1.4873   25.5845 C   0  0  0  0  0  0  0  0  0  0  0  0
  -10.4525    4.2452   25.1079 C   0  0  0  0  0  0  0  0  0  0  0  0
  -11.0925    3.4805   24.1815 C   0  0  0  0  0  0  0  0  0  0  0  0
  -11.0762    2.0715   24.3960 C   0  0  0  0  0  0  0  0  0  0  0  0
  -11.9078    1.0910   23.2111 P   0  0  1  0  0  0  0  0  0  0  0  0
  -12.9008    0.5263   23.1483 O   0  0  0  0  0  0  0  0  0  0  0  0
  -10.9759    1.2189   21.9608 O   0  0  0  0  0  0  0  0  0  0  0  0
  -11.5501    0.7928   24.4569 O   0  0  0  0  0  0  0  0  0  0  0  0
  -11.8043   -0.4007   25.1713 C   0  0  0  0  0  0  0  0  0  0  0  0
   -9.1768    0.5445   25.2289 C   0  0  0  0  0  0  0  0  0  0  0  0
  2  7  1  0
 12 13  1  0
 13 14  1  6
 13 15  2  0
 13 16  1  0
 16 17  1  0
  9 18  1  0
  1  2  2  0
  2  3  1  0
  3  6  2  0
  6  5  1  0
  5  4  2  0
  4  1  1  0
  7  8  2  0
  8  9  1  0
  9 12  2  0
 12 11  1  0
 11 10  2  0
 10  7  1  0
M  END
$$$$
