No_5931-complexes_sdf/6BKW-FPZ/2024-09-17-14-21-01/
     RDKit          3D

 37 41  0  0  0  0  0  0  0  0999 V2000
   -7.9040    3.9820   27.1177 C   0  0  0  0  0  0  0  0  0  0  0  0
   -8.2057    2.8231   26.8733 C   0  0  0  0  0  0  0  0  0  0  0  0
   -8.7695    5.0740   26.7916 C   0  0  0  0  0  0  0  0  0  0  0  0
   -8.4337    6.4678   27.0913 C   0  0  0  0  0  0  0  0  0  0  0  0
   -9.3742    2.4311   26.2346 C   0  0  0  0  0  0  0  0  0  0  0  0
  -10.2395    3.4267   25.8887 C   0  0  0  0  0  0  0  0  0  0  0  0
   -9.9567    4.7548   26.1374 C   0  0  0  0  0  0  0  0  0  0  0  0
   -8.5487    6.7970   28.2302 F   0  0  0  0  0  0  0  0  0  0  0  0
   -7.1219    6.7526   26.7050 F   0  0  0  0  0  0  0  0  0  0  0  0
   -9.1637    7.3267   26.2913 F   0  0  0  0  0  0  0  0  0  0  0  0
   -7.2419    1.6919   27.3128 C   0  0  0  0  0  0  0  0  0  0  0  0
   -5.9646    1.9756   27.8107 C   0  0  0  0  0  0  0  0  0  0  0  0
   -5.0848    0.9248   28.2045 C   0  0  0  0  0  0  0  0  0  0  0  0
   -5.5202   -0.3674   28.1477 C   0  0  0  0  0  0  0  0  0  0  0  0
   -7.4116    0.2936   27.3075 C   0  0  0  0  0  0  0  0  0  0  0  0
   -4.6102   -1.3819   28.6430 C   0  0  0  0  0  0  0  0  0  0  0  0
   -6.7136   -0.6364   27.7604 C   0  0  0  0  0  0  0  0  0  0  0  0
   -4.3378   -2.3175   28.2593 C   0  0  0  0  0  0  0  0  0  0  0  0
   -3.3594   -3.3217   28.8092 C   0  0  0  0  0  0  0  0  0  0  0  0
   -3.9279   -0.9894   30.0020 C   0  0  0  0  0  0  0  0  0  0  0  0
   -4.2083    0.2501   30.7357 C   0  0  0  0  0  0  0  0  0  0  0  0
   -2.9765   -1.8570   30.5538 C   0  0  0  0  0  0  0  0  0  0  0  0
   -2.6897   -3.0256   29.9574 C   0  0  0  0  0  0  0  0  0  0  0  0
   -3.5178    0.4853   31.8109 O   0  0  0  0  0  0  0  0  0  0  0  0
  -11.4775    3.1777   25.1324 C   0  0  0  0  0  0  0  0  0  0  0  0
  -11.9361    3.9697   24.2466 C   0  0  0  0  0  0  0  0  0  0  0  0
  -11.0909    5.0487   23.7069 C   0  0  0  0  0  0  0  0  0  0  0  0
  -11.4266    5.5093   22.3471 C   0  0  0  0  0  0  0  0  0  0  0  0
  -12.5115    5.0332   21.7247 C   0  0  0  0  0  0  0  0  0  0  0  0
  -13.3722    4.0790   22.2794 C   0  0  0  0  0  0  0  0  0  0  0  0
  -13.0646    3.5222   23.4783 C   0  0  0  0  0  0  0  0  0  0  0  0
  -12.2333    2.0492   25.6752 C   0  0  0  0  0  0  0  0  0  0  0  0
  -13.2716    2.3251   26.5464 C   0  0  0  0  0  0  0  0  0  0  0  0
  -14.0540    1.2776   27.0744 C   0  0  0  0  0  0  0  0  0  0  0  0
  -13.6302   -0.0257   26.7596 C   0  0  0  0  0  0  0  0  0  0  0  0
  -11.9763    0.7480   25.5575 C   0  0  0  0  0  0  0  0  0  0  0  0
  -12.5876   -0.2820   26.0462 C   0  0  0  0  0  0  0  0  0  0  0  0
  3  4  1  0
  4  8  1  0
  4  9  1  0
  4 10  1  0
  2 11  1  0
 14 16  1  0
 20 21  1  0
 21 24  1  0
  6 25  1  0
 25 32  1  0
 25 26  1  0
 32 33  2  0
 33 34  1  0
 34 35  2  0
 35 37  1  0
 37 36  2  0
 36 32  1  0
  1  2  2  0
  2  5  1  0
  5  6  2  0
  6  7  1  0
  7  3  2  0
  3  1  1  0
 16 18  2  0
 18 19  1  0
 19 23  2  0
 23 22  1  0
 22 20  2  0
 20 16  1  0
 11 12  2  0
 12 13  1  0
 13 14  2  0
 14 17  1  0
 17 15  2  0
 15 11  1  0
 26 27  2  0
 27 28  1  0
 28 29  2  0
 29 30  1  0
 30 31  2  0
 31 26  1  0
M  END
$$$$
