No_5984-complexes_sdf/6BKW-FPZ/2024-09-17-14-21-01/
     RDKit          3D

 11 11  0  0  0  0  0  0  0  0999 V2000
   -7.2496    3.8871   27.4508 C   0  0  0  0  0  0  0  0  0  0  0  0
   -8.5096    4.0291   27.2770 C   0  0  2  0  0  0  0  0  0  0  0  0
   -9.3451    2.8786   26.9046 C   0  0  0  0  0  0  0  0  0  0  0  0
  -10.6709    3.0505   26.6789 C   0  0  0  0  0  0  0  0  0  0  0  0
   -6.6727    2.6274   27.4797 N   0  0  0  0  0  0  0  0  0  0  0  0
   -7.3915    1.5417   27.2567 C   0  0  0  0  0  0  0  0  0  0  0  0
   -8.6976    1.7139   27.0182 N   0  0  0  0  0  0  0  0  0  0  0  0
   -9.3436    5.2245   27.2532 C   0  0  0  0  0  0  0  0  0  0  0  0
   -6.7846    0.3903   27.2928 N   0  0  0  0  0  0  0  0  0  0  0  0
  -11.4243    2.7727   27.6061 C   0  0  0  0  0  0  0  0  0  0  0  0
  -10.9661    2.2034   28.9104 C   0  0  0  0  0  0  0  0  0  0  0  0
  1  2  1  0
  2  3  1  0
  3  4  2  3
  1  5  1  0
  5  6  1  0
  3  7  1  0
  6  7  1  0
  2  8  1  6
  6  9  1  0
  4 10  1  0
 10 11  2  0
M  END
$$$$
