No_5515-complexes_sdf/6BKW-FPZ/2024-09-17-14-21-01/
     RDKit          3D

 31 34  0  0  0  0  0  0  0  0999 V2000
   -7.2496    3.8871   27.4508 C   0  0  0  0  0  0  0  0  0  0  0  0
   -7.9379    4.9063   27.8518 C   0  0  0  0  0  0  0  0  0  0  0  0
   -7.5112    6.1898   27.6280 C   0  0  0  0  0  0  0  0  0  0  0  0
   -7.4783    2.5435   27.5904 C   0  0  2  0  0  0  0  0  0  0  0  0
   -6.6064    1.5370   27.1750 C   0  0  0  0  0  0  0  0  0  0  0  0
   -6.4382    0.4862   27.9021 C   0  0  1  0  0  0  0  0  0  0  0  0
   -7.4924   -0.5142   27.9242 C   0  0  0  0  0  0  0  0  0  0  0  0
   -8.8030    0.1848   27.7575 C   0  0  0  0  0  0  0  0  0  0  0  0
   -8.7969    1.6443   27.4923 C   0  0  0  0  0  0  0  0  0  0  0  0
   -5.0621   -0.2213   28.0680 C   0  0  0  0  0  0  0  0  0  0  0  0
   -4.8259   -0.5566   29.2987 C   0  0  0  0  0  0  0  0  0  0  0  0
   -5.2257   -0.4526   30.2891 C   0  0  0  0  0  0  0  0  0  0  0  0
   -4.7646   -0.8554   31.6510 C   0  0  0  0  0  0  0  0  0  0  0  0
   -3.5130   -1.3994   31.7314 C   0  0  0  0  0  0  0  0  0  0  0  0
   -2.8328   -1.6010   30.5170 C   0  0  0  0  0  0  0  0  0  0  0  0
   -3.3240   -1.1441   29.3252 C   0  0  0  0  0  0  0  0  0  0  0  0
   -4.5581   -0.7394   27.0052 O   0  0  0  0  0  0  0  0  0  0  0  0
  -10.0495    2.4301   27.4994 C   0  0  0  0  0  0  0  0  0  0  0  0
  -10.1782    3.6302   27.0507 C   0  0  1  0  0  0  0  0  0  0  0  0
  -11.5119    4.1854   27.0651 C   0  0  0  0  0  0  0  0  0  0  0  0
   -9.4659    4.7077   28.0342 C   0  0  0  0  0  0  0  0  0  0  0  0
  -11.2184    1.7015   27.9018 C   0  0  0  0  0  0  0  0  0  0  0  0
  -11.3599    0.4378   27.8216 C   0  0  0  0  0  0  0  0  0  0  0  0
  -10.1281   -0.2435   28.2138 C   0  0  0  0  0  0  0  0  0  0  0  0
   -9.6757    3.8162   25.5874 C   0  0  0  0  0  0  0  0  0  0  0  0
  -10.7193    4.0865   24.5867 C   0  0  2  0  0  0  0  0  0  0  0  0
  -10.3757    4.3453   23.2656 C   0  0  0  0  0  0  0  0  0  0  0  0
  -11.9780    4.2306   25.1428 C   0  0  0  0  0  0  0  0  0  0  0  0
  -11.8295    5.6328   27.4265 C   0  0  0  0  0  0  0  0  0  0  0  0
  -12.7013    3.2765   27.4521 C   0  0  0  0  0  0  0  0  0  0  0  0
  -13.0574    4.3231   24.7183 C   0  0  0  0  0  0  0  0  0  0  0  0
  1  2  1  0
  2  3  2  0
  4  1  1  6
  4  5  1  0
  5  6  1  0
  6  7  1  0
  7  8  1  0
  4  9  1  0
  6 10  1  6
 10 11  1  0
 10 17  2  0
 18 19  1  0
 19 20  1  0
  2 21  1  0
 19 21  1  0
 19 25  1  6
 25 26  1  0
 26 27  1  1
 26 28  1  0
 20 29  1  0
 20 30  1  0
 28 31  1  0
 11 12  2  0
 12 13  1  0
 13 14  2  0
 14 15  1  0
 15 16  2  0
 16 11  1  0
  8  9  1  0
  9 18  2  0
 18 22  1  0
 22 23  2  0
 23 24  1  0
 24  8  2  0
M  END
$$$$
