No_5629-complexes_sdf/6BKW-FPZ/2024-09-17-14-21-01/
     RDKit          3D

 17 18  0  0  0  0  0  0  0  0999 V2000
   -7.9040    3.9820   27.1177 C   0  0  0  0  0  0  0  0  0  0  0  0
   -7.8663    4.8694   27.9238 C   0  0  0  0  0  0  0  0  0  0  0  0
   -9.0953    3.1697   27.0532 C   0  0  0  0  0  0  0  0  0  0  0  0
   -9.1405    2.0104   26.1761 C   0  0  0  0  0  0  0  0  0  0  0  0
   -9.0299    5.5381   28.3948 C   0  0  0  0  0  0  0  0  0  0  0  0
  -10.2709    4.9222   28.1362 C   0  0  0  0  0  0  0  0  0  0  0  0
  -10.2487    3.7550   27.4045 C   0  0  0  0  0  0  0  0  0  0  0  0
   -9.8414    1.7696   25.2539 C   0  0  0  0  0  0  0  0  0  0  0  0
  -10.7054    2.7190   24.7749 C   0  0  0  0  0  0  0  0  0  0  0  0
  -11.0317    2.8113   23.4831 C   0  0  0  0  0  0  0  0  0  0  0  0
  -11.8153    3.9865   23.0220 C   0  0  0  0  0  0  0  0  0  0  0  0
  -12.2288    4.8517   24.0013 C   0  0  0  0  0  0  0  0  0  0  0  0
  -11.9802    4.7245   25.2783 C   0  0  0  0  0  0  0  0  0  0  0  0
  -11.1705    3.7497   25.7266 C   0  0  0  0  0  0  0  0  0  0  0  0
  -11.6724    2.9909   26.5618 F   0  0  0  0  0  0  0  0  0  0  0  0
  -10.8354    2.4497   28.1370 O   0  0  0  0  0  0  0  0  0  0  0  0
  -11.5488    2.5572   29.2423 C   0  0  0  0  0  0  0  0  0  0  0  0
  3  4  1  0
  4  8  1  0
  8  9  1  0
 14 15  1  0
  7 16  1  0
 16 17  1  0
  9 10  2  0
 10 11  1  0
 11 12  2  0
 12 13  1  0
 13 14  2  0
 14  9  1  0
  1  2  2  0
  2  5  1  0
  5  6  2  0
  6  7  1  0
  7  3  2  0
  3  1  1  0
M  END
$$$$
