No_5726-complexes_sdf/6BKW-FPZ/2024-09-17-14-21-01/
     RDKit          3D

 13 13  0  0  0  0  0  0  0  0999 V2000
   -7.7129    4.2099   27.0854 C   0  0  0  0  0  0  0  0  0  0  0  0
   -8.2112    3.0637   26.9225 C   0  0  0  0  0  0  0  0  0  0  0  0
   -8.4224    5.2106   27.8516 C   0  0  0  0  0  0  0  0  0  0  0  0
   -9.5628    2.7160   27.4089 C   0  0  0  0  0  0  0  0  0  0  0  0
  -10.2639    3.7034   28.1156 C   0  0  0  0  0  0  0  0  0  0  0  0
   -7.8025    6.5389   27.9602 C   0  0  0  0  0  0  0  0  0  0  0  0
   -9.6552    4.9660   28.3153 C   0  0  0  0  0  0  0  0  0  0  0  0
  -10.0740    1.3618   27.2457 C   0  0  0  0  0  0  0  0  0  0  0  0
  -10.8695    1.0210   26.2889 C   0  0  0  0  0  0  0  0  0  0  0  0
  -11.1809    1.6044   25.3023 C   0  0  0  0  0  0  0  0  0  0  0  0
  -10.9435    2.7241   24.9821 C   0  0  0  0  0  0  0  0  0  0  0  0
  -10.9841    3.4888   23.8923 C   0  0  0  0  0  0  0  0  0  0  0  0
  -10.4652    4.8838   23.7796 C   0  0  0  0  0  0  0  0  0  0  0  0
  3  6  1  0
  4  8  1  0
  8  9  1  0
  9 10  1  0
 10 11  2  3
 11 12  1  0
 12 13  2  0
  1  2  2  0
  2  4  1  0
  4  5  2  0
  5  7  1  0
  7  3  2  0
  3  1  1  0
M  END
$$$$
