No_5941-complexes_sdf/6BKW-FPZ/2024-09-17-14-21-01/
     RDKit          3D

 24 25  0  0  0  0  0  0  0  0999 V2000
   -7.9040    3.9820   27.1177 C   0  0  0  0  0  0  0  0  0  0  0  0
   -8.2057    2.8231   26.8733 C   0  0  0  0  0  0  0  0  0  0  0  0
   -8.7695    5.0740   26.7916 C   0  0  0  0  0  0  0  0  0  0  0  0
   -8.4337    6.4678   27.0913 C   0  0  0  0  0  0  0  0  0  0  0  0
   -9.3742    2.4311   26.2346 C   0  0  0  0  0  0  0  0  0  0  0  0
  -10.2395    3.4267   25.8887 C   0  0  0  0  0  0  0  0  0  0  0  0
   -9.9567    4.7548   26.1374 C   0  0  0  0  0  0  0  0  0  0  0  0
   -7.3352    6.7089   26.8662 F   0  0  0  0  0  0  0  0  0  0  0  0
   -9.4224    7.2388   27.3565 F   0  0  0  0  0  0  0  0  0  0  0  0
   -7.2482    1.6869   27.2966 C   0  0  0  0  0  0  0  0  0  0  0  0
   -7.5838    0.3877   27.2322 N   0  0  0  0  0  0  0  0  0  0  0  0
   -6.0937    1.9615   27.7324 O   0  0  0  0  0  0  0  0  0  0  0  0
   -6.6653   -0.6781   27.6366 C   0  0  0  0  0  0  0  0  0  0  0  0
   -6.2157   -1.2888   26.7081 C   0  0  0  0  0  0  0  0  0  0  0  0
   -6.6942   -1.4001   25.4833 C   0  0  0  0  0  0  0  0  0  0  0  0
   -7.7973   -1.4530   25.2246 C   0  0  0  0  0  0  0  0  0  0  0  0
   -8.2685   -1.6518   23.7848 C   0  0  0  0  0  0  0  0  0  0  0  0
   -7.3000   -1.6109   22.8209 C   0  0  0  0  0  0  0  0  0  0  0  0
   -5.9683   -1.4758   23.0695 C   0  0  0  0  0  0  0  0  0  0  0  0
   -5.6005   -1.3962   24.3610 C   0  0  0  0  0  0  0  0  0  0  0  0
   -4.9178   -2.0696   27.0378 C   0  0  0  0  0  0  0  0  0  0  0  0
   -4.6772   -2.3014   28.2061 C   0  0  0  0  0  0  0  0  0  0  0  0
   -5.3150   -1.5436   29.2799 C   0  0  0  0  0  0  0  0  0  0  0  0
   -4.9733   -1.6879   30.7201 C   0  0  0  0  0  0  0  0  0  0  0  0
  3  4  1  0
  4  8  1  0
  4  9  1  0
  2 10  1  0
 10 11  1  0
 10 12  2  0
 11 13  1  0
 13 14  1  0
 14 15  1  0
 14 21  1  0
 21 22  2  3
 22 23  1  0
 23 24  2  0
 15 16  2  0
 16 17  1  0
 17 18  2  0
 18 19  1  0
 19 20  2  0
 20 15  1  0
  1  2  2  0
  2  5  1  0
  5  6  2  0
  6  7  1  0
  7  3  2  0
  3  1  1  0
M  END
$$$$
