No_5011-complexes_sdf/6BKW-FPZ/2024-09-17-14-21-01/
     RDKit          3D

 21 22  0  0  0  0  0  0  0  0999 V2000
   -7.9040    3.9820   27.1177 C   0  0  0  0  0  0  0  0  0  0  0  0
   -8.2057    2.8231   26.8733 C   0  0  0  0  0  0  0  0  0  0  0  0
   -9.2962    2.4021   26.1155 C   0  0  0  0  0  0  0  0  0  0  0  0
   -8.7358    5.0662   26.5917 C   0  0  0  0  0  0  0  0  0  0  0  0
   -9.7618    4.7023   25.7546 C   0  0  0  0  0  0  0  0  0  0  0  0
  -10.0066    3.4105   25.4922 C   0  0  0  0  0  0  0  0  0  0  0  0
   -8.3943    6.4760   26.8801 C   0  0  0  0  0  0  0  0  0  0  0  0
   -8.6590    7.3213   26.1280 F   0  0  0  0  0  0  0  0  0  0  0  0
   -7.0387    6.4908   27.1906 F   0  0  0  0  0  0  0  0  0  0  0  0
   -9.0767    6.6237   28.1752 F   0  0  0  0  0  0  0  0  0  0  0  0
   -7.5366    1.5292   27.4163 C   0  0  1  0  0  0  0  0  0  0  0  0
   -8.0300    0.3456   27.4171 N   0  0  0  0  0  0  0  0  0  0  0  0
   -6.0660    1.7162   27.7999 C   0  0  0  0  0  0  0  0  0  0  0  0
   -5.3797    0.5605   28.2324 C   0  0  1  0  0  0  0  0  0  0  0  0
   -4.0487    0.7196   28.6541 C   0  0  0  0  0  0  0  0  0  0  0  0
   -6.0546   -0.6540   28.3459 C   0  0  0  0  0  0  0  0  0  0  0  0
   -7.4038   -0.7266   27.9372 C   0  0  0  0  0  0  0  0  0  0  0  0
   -3.4895    1.7371   28.1882 F   0  0  0  0  0  0  0  0  0  0  0  0
   -3.2592   -0.3694   28.3952 F   0  0  0  0  0  0  0  0  0  0  0  0
   -4.0151    0.8576   30.0611 F   0  0  0  0  0  0  0  0  0  0  0  0
   -7.9956   -1.8156   27.9653 O   0  0  0  0  0  0  0  0  0  0  0  0
  4  7  1  0
  7  8  1  0
  7  9  1  0
  7 10  1  0
 11  2  1  6
 11 13  1  0
 13 14  1  0
 14 15  1  1
 14 16  1  0
 12 17  1  0
 16 17  1  0
 15 18  1  0
 15 19  1  0
 15 20  1  0
 17 21  2  0
 12 11  1  0
  1  2  2  0
  2  3  1  0
  3  6  2  0
  6  5  1  0
  5  4  2  0
  4  1  1  0
M  END
$$$$
