No_5377-complexes_sdf/6BKW-FPZ/2024-09-17-14-21-01/
     RDKit          3D

 27 30  0  0  0  0  0  0  0  0999 V2000
   -7.7129    4.2099   27.0854 C   0  0  0  0  0  0  0  0  0  0  0  0
   -8.9133    4.4736   27.0998 C   0  0  2  0  0  0  0  0  0  0  0  0
   -9.7135    3.9633   26.0300 C   0  0  0  0  0  0  0  0  0  0  0  0
   -6.8655    4.8824   28.1822 C   0  0  0  0  0  0  0  0  0  0  0  0
  -10.8856    4.5824   25.6430 C   0  0  0  0  0  0  0  0  0  0  0  0
   -7.6664    5.7849   28.7962 N   0  0  0  0  0  0  0  0  0  0  0  0
   -8.8934    5.5511   27.9459 C   0  0  0  0  0  0  0  0  0  0  0  0
  -11.7566    4.0566   24.6254 C   0  0  0  0  0  0  0  0  0  0  0  0
  -11.3129    2.8894   23.9740 C   0  0  0  0  0  0  0  0  0  0  0  0
  -10.1595    2.2702   24.3585 C   0  0  0  0  0  0  0  0  0  0  0  0
   -9.3211    2.7782   25.3932 C   0  0  0  0  0  0  0  0  0  0  0  0
  -12.1753    2.3386   22.9344 C   0  0  0  0  0  0  0  0  0  0  0  0
  -11.7309    2.0063   21.8796 C   0  0  0  0  0  0  0  0  0  0  0  0
  -10.2965    2.0803   21.6185 C   0  0  0  0  0  0  0  0  0  0  0  0
   -9.5228    1.7232   22.9103 C   0  0  0  0  0  0  0  0  0  0  0  0
   -5.6420    4.5732   28.4812 N   0  0  0  0  0  0  0  0  0  0  0  0
  -12.4396    1.7088   20.6013 C   0  0  0  0  0  0  0  0  0  0  0  0
  -13.0377    0.7267   20.6237 C   0  0  0  0  0  0  0  0  0  0  0  0
  -13.3113   -0.1116   21.3987 C   0  0  0  0  0  0  0  0  0  0  0  0
  -13.6741   -1.0622   21.7850 C   0  0  0  0  0  0  0  0  0  0  0  0
  -13.8641   -1.9515   22.7146 C   0  0  0  0  0  0  0  0  0  0  0  0
  -13.4081   -1.7194   23.8668 C   0  0  0  0  0  0  0  0  0  0  0  0
  -12.7071   -0.4870   24.0392 C   0  0  0  0  0  0  0  0  0  0  0  0
  -12.5605    0.3618   22.9320 C   0  0  0  0  0  0  0  0  0  0  0  0
  -11.5029    0.7383   22.9604 C   0  0  0  0  0  0  0  0  0  0  0  0
  -10.5527    0.1490   23.3095 N   0  0  0  0  0  0  0  0  0  0  0  0
  -11.0617   -0.4081   23.3963 N   0  0  0  0  0  0  0  0  0  0  0  0
  1  2  1  0
  1  4  1  0
  4  6  2  0
  2  7  1  0
  6  7  1  0
  4 16  1  0
 13 17  1  0
 17 18  1  0
 24 25  1  0
 25 26  1  0
 26 27  1  0
  2  3  1  6
 18 19  1  0
 10 15  1  0
 15 14  2  0
 14 13  1  0
 13 12  2  0
 12  9  1  0
 19 20  2  0
 20 21  1  0
 21 22  2  0
 22 23  1  0
 23 24  2  0
 24 19  1  0
  3  5  2  0
  5  8  1  0
  8  9  2  0
  9 10  1  0
 10 11  2  0
 11  3  1  0
M  END
$$$$
