No_5790-complexes_sdf/6BKW-FPZ/2024-09-17-14-21-01/
     RDKit          3D

 26 29  0  0  0  0  0  0  0  0999 V2000
   -7.2496    3.8871   27.4508 C   0  0  0  0  0  0  0  0  0  0  0  0
   -7.9379    4.9063   27.8518 C   0  0  0  0  0  0  0  0  0  0  0  0
   -9.3376    4.8647   27.7795 C   0  0  0  0  0  0  0  0  0  0  0  0
   -7.8544    2.6294   27.0414 C   0  0  0  0  0  0  0  0  0  0  0  0
   -9.2665    2.6175   27.0340 C   0  0  0  0  0  0  0  0  0  0  0  0
   -9.9836    3.7042   27.4150 C   0  0  0  0  0  0  0  0  0  0  0  0
   -9.9053    1.3367   26.6546 C   0  0  0  0  0  0  0  0  0  0  0  0
  -10.5453    0.7121   27.6210 C   0  0  0  0  0  0  0  0  0  0  0  0
  -10.9793   -0.6129   27.5217 C   0  0  0  0  0  0  0  0  0  0  0  0
  -11.6472   -1.2433   28.6069 C   0  0  0  0  0  0  0  0  0  0  0  0
   -9.7537    0.8665   25.3723 C   0  0  0  0  0  0  0  0  0  0  0  0
  -10.1180   -0.4571   25.1662 C   0  0  0  0  0  0  0  0  0  0  0  0
  -10.8035   -1.1325   26.2233 C   0  0  0  0  0  0  0  0  0  0  0  0
  -11.0226   -2.0741   29.3104 N   0  0  0  0  0  0  0  0  0  0  0  0
  -11.0317   -3.2313   29.3978 C   0  0  0  0  0  0  0  0  0  0  0  0
  -10.1324   -3.9533   30.2905 C   0  0  0  0  0  0  0  0  0  0  0  0
   -9.2655   -3.1029   30.8332 C   0  0  0  0  0  0  0  0  0  0  0  0
   -9.0694   -1.8011   30.5592 C   0  0  0  0  0  0  0  0  0  0  0  0
   -9.8786   -1.2976   29.8356 C   0  0  0  0  0  0  0  0  0  0  0  0
  -11.4650    3.6690   27.5073 C   0  0  0  0  0  0  0  0  0  0  0  0
  -12.1049    3.8311   28.8532 C   0  0  0  0  0  0  0  0  0  0  0  0
  -13.4664    3.7952   29.0501 C   0  0  0  0  0  0  0  0  0  0  0  0
  -14.2540    3.9902   27.9105 C   0  0  0  0  0  0  0  0  0  0  0  0
  -12.2717    3.6853   26.3859 C   0  0  0  0  0  0  0  0  0  0  0  0
  -13.6730    3.8684   26.5769 C   0  0  0  0  0  0  0  0  0  0  0  0
   -7.3234    6.0634   28.2230 O   0  0  0  0  0  0  0  0  0  0  0  0
  5  7  1  0
  9 10  1  0
 10 14  1  0
 14 15  1  0
 16 17  1  0
 14 19  1  0
 18 19  1  0
  6 20  1  0
  2 26  1  0
 15 16  1  0
 17 18  1  0
 20 21  2  0
 21 22  1  0
 22 23  2  0
 23 25  1  0
 25 24  2  0
 24 20  1  0
  1  2  2  0
  2  3  1  0
  3  6  2  0
  6  5  1  0
  5  4  2  0
  4  1  1  0
  7  8  2  0
  8  9  1  0
  9 13  2  0
 13 12  1  0
 12 11  2  0
 11  7  1  0
M  END
$$$$
