No_5886-complexes_sdf/6BKW-FPZ/2024-09-17-14-21-01/
     RDKit          3D

 39 44  0  0  0  0  0  0  0  0999 V2000
   -7.7129    4.2099   27.0854 C   0  0  0  0  0  0  0  0  0  0  0  0
   -7.7814    5.1722   27.8972 C   0  0  0  0  0  0  0  0  0  0  0  0
   -8.8776    3.8408   26.3416 C   0  0  0  0  0  0  0  0  0  0  0  0
   -9.9844    4.6492   26.4743 C   0  0  0  0  0  0  0  0  0  0  0  0
   -8.7830    6.1594   27.8870 C   0  0  0  0  0  0  0  0  0  0  0  0
   -9.9269    5.8191   27.1183 C   0  0  0  0  0  0  0  0  0  0  0  0
   -8.8618    2.6242   25.5633 C   0  0  0  0  0  0  0  0  0  0  0  0
   -8.2681    1.5598   26.1237 N   0  0  0  0  0  0  0  0  0  0  0  0
   -8.8041    0.5667   26.5766 C   0  0  0  0  0  0  0  0  0  0  0  0
  -10.1892    0.4150   26.6234 C   0  0  0  0  0  0  0  0  0  0  0  0
  -10.7172   -0.6064   27.4596 C   0  0  0  0  0  0  0  0  0  0  0  0
   -8.1211   -0.2316   27.5186 C   0  0  0  0  0  0  0  0  0  0  0  0
   -8.5815   -1.2755   28.2653 C   0  0  0  0  0  0  0  0  0  0  0  0
   -9.9551   -1.4274   28.2515 C   0  0  0  0  0  0  0  0  0  0  0  0
   -6.5736   -0.0615   27.5820 C   0  0  0  0  0  0  0  0  0  0  0  0
   -5.8247   -0.4205   28.5117 C   0  0  0  0  0  0  0  0  0  0  0  0
   -4.4218   -0.1427   28.5188 C   0  0  0  0  0  0  0  0  0  0  0  0
   -3.9260    0.7071   27.5296 C   0  0  0  0  0  0  0  0  0  0  0  0
   -4.7542    1.1657   26.5168 C   0  0  0  0  0  0  0  0  0  0  0  0
   -6.0894    0.8331   26.5232 C   0  0  0  0  0  0  0  0  0  0  0  0
   -6.7033    1.5889   26.0255 C   0  0  0  0  0  0  0  0  0  0  0  0
   -3.5283   -0.6310   29.6049 C   0  0  0  0  0  0  0  0  0  0  0  0
   -3.6049   -1.6846   30.2307 N   0  0  0  0  0  0  0  0  0  0  0  0
   -2.9935   -1.9872   31.2836 C   0  0  0  0  0  0  0  0  0  0  0  0
   -2.2611   -2.9628   31.4325 C   0  0  0  0  0  0  0  0  0  0  0  0
   -3.2357   -0.9909   32.4731 C   0  0  0  0  0  0  0  0  0  0  0  0
   -2.5284   -1.1985   33.6977 C   0  0  0  0  0  0  0  0  0  0  0  0
   -1.6999   -2.2828   33.7909 C   0  0  0  0  0  0  0  0  0  0  0  0
   -1.5657   -3.1733   32.7289 C   0  0  0  0  0  0  0  0  0  0  0  0
   -4.3465   -2.7038   29.6986 C   0  0  0  0  0  0  0  0  0  0  0  0
   -3.6605   -3.5773   28.8673 C   0  0  0  0  0  0  0  0  0  0  0  0
   -4.2846   -4.5865   28.2723 C   0  0  0  0  0  0  0  0  0  0  0  0
   -5.6733   -4.6422   28.3975 C   0  0  0  0  0  0  0  0  0  0  0  0
   -6.3475   -3.8456   29.3141 C   0  0  0  0  0  0  0  0  0  0  0  0
   -5.6658   -2.8461   29.9350 C   0  0  0  0  0  0  0  0  0  0  0  0
   -2.5394    0.2561   29.8488 O   0  0  0  0  0  0  0  0  0  0  0  0
  -11.1323    4.3752   25.6456 C   0  0  0  0  0  0  0  0  0  0  0  0
  -11.1038    4.3935   24.2463 C   0  0  0  0  0  0  0  0  0  0  0  0
  -12.1667    4.1241   23.4519 C   0  0  0  0  0  0  0  0  0  0  0  0
  3  7  1  0
  7  8  1  0
  8  9  1  0
 12 15  1  0
  8 21  1  0
 20 21  1  0
 17 22  1  0
 22 23  1  0
 23 24  1  0
 23 30  1  0
 22 36  2  0
  4 37  1  0
 37 38  2  3
 38 39  1  0
 15 16  2  0
 16 17  1  0
 17 18  2  0
 18 19  1  0
 19 20  2  0
 20 15  1  0
 24 25  2  0
 25 29  1  0
 29 28  2  0
 28 27  1  0
 27 26  2  0
 26 24  1  0
 30 31  2  0
 31 32  1  0
 32 33  2  0
 33 34  1  0
 34 35  2  0
 35 30  1  0
  9 10  2  0
 10 11  1  0
 11 14  2  0
 14 13  1  0
 13 12  2  0
 12  9  1  0
  1  2  2  0
  2  5  1  0
  5  6  2  0
  6  4  1  0
  4  3  2  0
  3  1  1  0
M  END
$$$$
