No_5092-complexes_sdf/6BKW-FPZ/2024-09-17-14-21-01/
     RDKit          3D

 18 19  0  0  0  0  0  0  0  0999 V2000
   -7.9040    3.9820   27.1177 C   0  0  0  0  0  0  0  0  0  0  0  0
   -9.0711    4.3164   27.0630 C   0  0  0  0  0  0  0  0  0  0  0  0
   -9.8698    3.9665   25.9495 C   0  0  1  0  0  0  0  0  0  0  0  0
   -7.0332    4.5030   28.2025 C   0  0  0  0  0  0  0  0  0  0  0  0
  -10.9909    4.7237   25.5958 C   0  0  0  0  0  0  0  0  0  0  0  0
   -7.4989    5.5573   28.9524 C   0  0  0  0  0  0  0  0  0  0  0  0
  -11.7350    4.2316   24.5284 C   0  0  0  0  0  0  0  0  0  0  0  0
  -11.2838    3.2467   23.6902 C   0  0  0  0  0  0  0  0  0  0  0  0
  -10.1288    2.5811   23.9927 C   0  0  0  0  0  0  0  0  0  0  0  0
   -9.3812    2.9944   25.1034 C   0  0  0  0  0  0  0  0  0  0  0  0
   -9.4892    5.4170   27.9217 C   0  0  0  0  0  0  0  0  0  0  0  0
   -8.7079    5.9679   28.8144 N   0  0  0  0  0  0  0  0  0  0  0  0
   -9.6338    1.4578   23.1626 C   0  0  0  0  0  0  0  0  0  0  0  0
   -8.7103    0.5889   23.6489 C   0  0  0  0  0  0  0  0  0  0  0  0
   -8.1550   -0.4129   22.8257 C   0  0  0  0  0  0  0  0  0  0  0  0
   -7.0793   -1.2058   23.2573 C   0  0  0  0  0  0  0  0  0  0  0  0
   -6.6201   -1.0651   24.5968 C   0  0  0  0  0  0  0  0  0  0  0  0
   -7.2014   -0.1578   25.4442 C   0  0  0  0  0  0  0  0  0  0  0  0
  3  5  1  0
  5  7  1  0
  7  8  1  0
  8  9  1  0
  3 10  1  0
  9 10  1  0
  9 13  1  0
 13 14  2  3
 14 15  1  0
 15 16  2  3
 16 17  1  0
 17 18  2  0
  3  2  1  6
  1  2  2  0
  2 11  1  0
 11 12  2  0
 12  6  1  0
  6  4  2  0
  4  1  1  0
M  END
$$$$
