No_5914-complexes_sdf/6BKW-FPZ/2024-09-17-14-21-01/
     RDKit          3D

  9  9  0  0  0  0  0  0  0  0999 V2000
   -7.9040    3.9820   27.1177 C   0  0  0  0  0  0  0  0  0  0  0  0
   -7.8663    4.8694   27.9238 C   0  0  0  0  0  0  0  0  0  0  0  0
   -9.0806    3.1428   27.1220 C   0  0  0  0  0  0  0  0  0  0  0  0
   -8.9544    1.8782   26.5467 C   0  0  0  0  0  0  0  0  0  0  0  0
   -6.6992    5.7996   27.9434 C   0  0  0  0  0  0  0  0  0  0  0  0
  -10.0564    1.2739   25.9979 C   0  0  0  0  0  0  0  0  0  0  0  0
  -11.3201    1.7243   26.2883 C   0  0  0  0  0  0  0  0  0  0  0  0
  -10.3808    3.5973   27.2513 C   0  0  0  0  0  0  0  0  0  0  0  0
  -11.4867    2.9375   26.9333 C   0  0  0  0  0  0  0  0  0  0  0  0
  1  2  1  0
  1  3  1  0
  2  5  1  0
  3  4  2  0
  4  6  1  0
  6  7  2  0
  7  9  1  0
  9  8  2  0
  8  3  1  0
M  END
$$$$
