No_575-complexes_sdf/6BKW-FPZ/2024-09-17-14-21-01/
     RDKit          3D

 38 43  0  0  0  0  0  0  0  0999 V2000
   -7.9040    3.9820   27.1177 C   0  0  0  0  0  0  0  0  0  0  0  0
   -8.2057    2.8231   26.8733 C   0  0  0  0  0  0  0  0  0  0  0  0
   -7.0130    4.3706   28.1140 C   0  0  0  0  0  0  0  0  0  0  0  0
   -7.4093    1.7370   27.3857 C   0  0  0  0  0  0  0  0  0  0  0  0
   -6.1712    2.1248   28.0064 C   0  0  0  0  0  0  0  0  0  0  0  0
   -5.9514    3.4407   28.3034 C   0  0  0  0  0  0  0  0  0  0  0  0
   -8.9085    5.0926   26.7182 C   0  0  0  0  0  0  0  0  0  0  0  0
   -9.5320    4.9761   25.4502 C   0  0  0  0  0  0  0  0  0  0  0  0
   -5.2418    1.0587   28.3881 C   0  0  0  0  0  0  0  0  0  0  0  0
   -4.5513    0.4462   27.6641 C   0  0  0  0  0  0  0  0  0  0  0  0
   -3.7690   -0.4614   27.8159 C   0  0  0  0  0  0  0  0  0  0  0  0
   -3.4649   -0.9086   29.1745 C   0  0  0  0  0  0  0  0  0  0  0  0
   -4.2124   -0.2648   30.1733 C   0  0  0  0  0  0  0  0  0  0  0  0
   -5.0357    0.7883   29.7963 C   0  0  0  0  0  0  0  0  0  0  0  0
   -8.9291    6.3659   27.3393 C   0  0  0  0  0  0  0  0  0  0  0  0
   -3.9901   -0.5699   31.6009 C   0  0  0  0  0  0  0  0  0  0  0  0
   -4.5870   -1.6996   32.1028 C   0  0  0  0  0  0  0  0  0  0  0  0
   -4.7722   -1.8112   33.4381 C   0  0  0  0  0  0  0  0  0  0  0  0
   -3.8175   -1.2174   34.3287 C   0  0  0  0  0  0  0  0  0  0  0  0
   -2.9101   -0.3145   33.8969 C   0  0  0  0  0  0  0  0  0  0  0  0
   -3.0495    0.0829   32.4912 C   0  0  0  0  0  0  0  0  0  0  0  0
   -3.8399   -1.5278   35.7875 C   0  0  0  0  0  0  0  0  0  0  0  0
   -4.8482   -1.7198   36.4713 C   0  0  0  0  0  0  0  0  0  0  0  0
   -4.8761   -1.8863   37.9421 C   0  0  0  0  0  0  0  0  0  0  0  0
   -3.6477   -1.8614   38.5662 C   0  0  0  0  0  0  0  0  0  0  0  0
   -2.6433   -1.3589   36.5928 C   0  0  0  0  0  0  0  0  0  0  0  0
   -2.5367   -1.5472   37.8862 C   0  0  0  0  0  0  0  0  0  0  0  0
   -2.4042   -1.9110   29.5305 C   0  0  0  0  0  0  0  0  0  0  0  0
   -2.6125   -3.0409   29.7589 F   0  0  0  0  0  0  0  0  0  0  0  0
   -1.7066   -1.3441   30.7028 F   0  0  0  0  0  0  0  0  0  0  0  0
   -1.4355   -1.8480   28.5176 F   0  0  0  0  0  0  0  0  0  0  0  0
  -10.3326    3.9171   25.1614 C   0  0  0  0  0  0  0  0  0  0  0  0
  -10.7523    3.7132   23.7953 C   0  0  0  0  0  0  0  0  0  0  0  0
  -11.1839    2.5539   23.2987 C   0  0  0  0  0  0  0  0  0  0  0  0
  -11.4302    1.5351   24.2208 C   0  0  0  0  0  0  0  0  0  0  0  0
  -11.1402    1.6720   25.5464 C   0  0  0  0  0  0  0  0  0  0  0  0
  -10.5331    2.8571   25.9917 C   0  0  0  0  0  0  0  0  0  0  0  0
   -9.4530    2.3364   26.2359 C   0  0  0  0  0  0  0  0  0  0  0  0
  1  7  1  0
  7  8  2  0
  5  9  1  0
  7 15  1  0
 13 16  1  0
 19 22  1  0
 12 28  1  0
 28 29  1  0
 28 30  1  0
 28 31  1  0
  8 32  1  0
  2 38  1  0
 37 38  1  0
 32 33  2  0
 33 34  1  0
 34 35  2  0
 35 36  1  0
 36 37  2  0
 37 32  1  0
  1  2  2  0
  2  4  1  0
  4  5  2  0
  5  6  1  0
  6  3  2  0
  3  1  1  0
  9 10  2  0
 10 11  1  0
 11 12  2  0
 12 13  1  0
 13 14  2  0
 14  9  1  0
 22 23  2  0
 23 24  1  0
 24 25  2  0
 25 27  1  0
 27 26  2  0
 26 22  1  0
 16 17  2  0
 17 18  1  0
 18 19  2  0
 19 20  1  0
 20 21  2  0
 21 16  1  0
M  END
$$$$
