No_5040-complexes_sdf/6BKW-FPZ/2024-09-17-14-21-01/
     RDKit          3D

 40 43  0  0  0  0  0  0  0  0999 V2000
   -7.7129    4.2099   27.0854 C   0  0  0  0  0  0  0  0  0  0  0  0
   -8.2112    3.0637   26.9225 C   0  0  0  0  0  0  0  0  0  0  0  0
   -9.4446    2.8304   26.1868 C   0  0  0  0  0  0  0  0  0  0  0  0
   -8.4697    5.3956   26.7238 C   0  0  0  0  0  0  0  0  0  0  0  0
   -9.6172    5.2111   25.9513 C   0  0  0  0  0  0  0  0  0  0  0  0
  -10.0424    3.9782   25.6873 C   0  0  0  0  0  0  0  0  0  0  0  0
   -7.9172    6.7181   27.0124 C   0  0  0  0  0  0  0  0  0  0  0  0
   -7.2016    6.7379   28.0490 F   0  0  0  0  0  0  0  0  0  0  0  0
   -9.0277    7.5536   27.3596 F   0  0  0  0  0  0  0  0  0  0  0  0
   -7.5007    1.8114   27.4117 C   0  0  0  0  0  0  0  0  0  0  0  0
   -8.0637    0.5314   27.3085 C   0  0  0  0  0  0  0  0  0  0  0  0
   -7.3188   -0.5373   27.6568 C   0  0  0  0  0  0  0  0  0  0  0  0
   -6.0295   -0.3876   28.1715 C   0  0  0  0  0  0  0  0  0  0  0  0
   -5.4234    0.8892   28.1798 C   0  0  0  0  0  0  0  0  0  0  0  0
   -6.1037    1.9468   27.7809 C   0  0  0  0  0  0  0  0  0  0  0  0
   -4.1117    1.0288   28.5921 N   0  0  0  0  0  0  0  0  0  0  0  0
   -7.3012    7.2924   26.0499 F   0  0  0  0  0  0  0  0  0  0  0  0
   -3.1592   -0.0284   28.6833 C   0  0  0  0  0  0  0  0  0  0  0  0
   -2.1131   -0.0027   28.2297 C   0  0  0  0  0  0  0  0  0  0  0  0
   -1.1387   -1.1123   28.3005 C   0  0  0  0  0  0  0  0  0  0  0  0
   -3.4591   -1.0377   29.6275 C   0  0  0  0  0  0  0  0  0  0  0  0
   -2.5816   -2.0293   29.9272 C   0  0  0  0  0  0  0  0  0  0  0  0
   -1.3855   -2.0430   29.2340 C   0  0  0  0  0  0  0  0  0  0  0  0
   -2.9062   -3.0647   30.9335 C   0  0  2  0  0  0  0  0  0  0  0  0
   -4.1088   -3.5741   31.3487 Cl  0  0  0  0  0  0  0  0  0  0  0  0
   -1.6178   -3.4634   31.7104 C   0  0  0  0  0  0  0  0  0  0  0  0
   -1.3247   -2.7446   32.7619 C   0  0  1  0  0  0  0  0  0  0  0  0
   -2.1361   -1.7857   33.2430 N   0  0  0  0  0  0  0  0  0  0  0  0
   -1.7569   -0.5940   33.6849 C   0  0  0  0  0  0  0  0  0  0  0  0
   -3.0034   -2.3230   34.4284 C   0  0  0  0  0  0  0  0  0  0  0  0
   -3.9248   -1.3823   34.7972 C   0  0  0  0  0  0  0  0  0  0  0  0
   -5.1089   -1.5563   35.2593 C   0  0  0  0  0  0  0  0  0  0  0  0
   -5.6462   -2.8065   35.4994 C   0  0  0  0  0  0  0  0  0  0  0  0
   -6.8354   -3.0019   35.9417 C   0  0  0  0  0  0  0  0  0  0  0  0
   -3.4025    0.0228   34.2732 C   0  0  0  0  0  0  0  0  0  0  0  0
   -0.6933   -3.5892   33.9201 C   0  0  0  0  0  0  0  0  0  0  0  0
   -7.6463   -3.8177   35.3824 C   0  0  0  0  0  0  0  0  0  0  0  0
   -9.0892   -3.8117   35.6120 C   0  0  0  0  0  0  0  0  0  0  0  0
   -9.5454   -3.1697   36.7881 C   0  0  0  0  0  0  0  0  0  0  0  0
   -8.6623   -2.4283   37.5428 C   0  0  0  0  0  0  0  0  0  0  0  0
  4  7  1  0
  7  8  1  0
  7  9  1  0
  2 10  1  0
 14 16  1  0
  7 17  1  0
 22 24  1  0
 24 25  1  1
 24 26  1  0
 26 27  1  0
 27 28  1  0
 28 29  1  0
 28 30  1  0
 30 31  1  0
 31 32  2  3
 32 33  1  0
 33 34  2  3
 29 35  1  0
 31 35  1  0
 27 36  1  1
 34 37  1  0
 37 38  2  3
 38 39  1  0
 39 40  2  0
 16 18  1  0
  1  2  2  0
  2  3  1  0
  3  6  2  0
  6  5  1  0
  5  4  2  0
  4  1  1  0
 10 11  2  0
 11 12  1  0
 12 13  2  0
 13 14  1  0
 14 15  2  0
 15 10  1  0
 18 19  2  0
 19 20  1  0
 20 23  2  0
 23 22  1  0
 22 21  2  0
 21 18  1  0
M  END
$$$$
