No_5252-complexes_sdf/6BKW-FPZ/2024-09-17-14-21-01/
     RDKit          3D

 17 19  0  0  0  0  0  0  0  0999 V2000
   -7.7129    4.2099   27.0854 C   0  0  0  0  0  0  0  0  0  0  0  0
   -8.9133    4.4736   27.0998 C   0  0  0  0  0  0  0  0  0  0  0  0
   -9.8363    3.8127   27.2418 C   0  0  0  0  0  0  0  0  0  0  0  0
   -7.2995    2.8520   27.3808 C   0  0  0  0  0  0  0  0  0  0  0  0
   -8.3226    1.9328   27.4680 C   0  0  0  0  0  0  0  0  0  0  0  0
   -9.5955    2.3639   27.4416 C   0  0  0  0  0  0  0  0  0  0  0  0
   -9.2131    6.2759   26.9097 Cl  0  0  0  0  0  0  0  0  0  0  0  0
   -5.9377    2.3850   27.4891 C   0  0  0  0  0  0  0  0  0  0  0  0
   -5.5653    1.0639   27.5851 C   0  0  0  0  0  0  0  0  0  0  0  0
   -6.4350    0.1595   27.8348 C   0  0  0  0  0  0  0  0  0  0  0  0
   -7.9167    0.5429   27.7605 C   0  0  0  0  0  0  0  0  0  0  0  0
   -4.2003    0.6749   27.8882 C   0  0  0  0  0  0  0  0  0  0  0  0
   -3.5041    0.8613   28.8093 C   0  0  0  0  0  0  0  0  0  0  0  0
   -3.5531    0.0923   26.6505 C   0  0  0  0  0  0  0  0  0  0  0  0
   -3.1072   -1.1812   26.7846 C   0  0  0  0  0  0  0  0  0  0  0  0
   -2.4075   -0.1339   29.1422 C   0  0  0  0  0  0  0  0  0  0  0  0
   -1.9733   -1.0264   27.9638 C   0  0  0  0  0  0  0  0  0  0  0  0
  2  7  1  0
  9 12  1  0
  1  2  2  0
  2  3  1  0
  3  6  2  0
  6  5  1  0
  4  1  1  0
  4  5  2  0
  5 11  1  0
 11 10  2  0
 10  9  1  0
  9  8  2  0
  8  4  1  0
 12 13  2  0
 13 16  1  0
 16 17  2  0
 17 15  1  0
 15 14  2  0
 14 12  1  0
M  END
$$$$
