No_5347-complexes_sdf/6BKW-FPZ/2024-09-17-14-21-01/
     RDKit          3D

 21 23  0  0  0  0  0  0  0  0999 V2000
   -7.7129    4.2099   27.0854 C   0  0  0  0  0  0  0  0  0  0  0  0
   -7.7814    5.1722   27.8972 C   0  0  0  0  0  0  0  0  0  0  0  0
   -8.8255    3.2789   27.1191 C   0  0  0  0  0  0  0  0  0  0  0  0
   -8.7530    2.0643   26.3119 C   0  0  0  0  0  0  0  0  0  0  0  0
   -9.8958    1.4956   25.8527 C   0  0  0  0  0  0  0  0  0  0  0  0
  -11.1040    1.9266   26.2563 C   0  0  0  0  0  0  0  0  0  0  0  0
  -10.1519    3.6814   27.3365 C   0  0  0  0  0  0  0  0  0  0  0  0
  -11.2495    3.0370   27.1007 C   0  0  0  0  0  0  0  0  0  0  0  0
   -6.6641    6.1001   27.9768 C   0  0  0  0  0  0  0  0  0  0  0  0
   -9.7134    0.2547   25.0223 C   0  0  0  0  0  0  0  0  0  0  0  0
   -9.2575   -0.9053   25.5485 C   0  0  0  0  0  0  0  0  0  0  0  0
   -9.9529    0.3737   23.6352 C   0  0  0  0  0  0  0  0  0  0  0  0
   -9.1165   -1.9542   24.8384 C   0  0  0  0  0  0  0  0  0  0  0  0
   -9.7608   -0.7645   22.7962 C   0  0  0  0  0  0  0  0  0  0  0  0
   -9.3174   -1.9348   23.4236 C   0  0  0  0  0  0  0  0  0  0  0  0
  -12.5845    3.4176   27.6479 C   0  0  0  0  0  0  0  0  0  0  0  0
  -13.2432    4.2892   27.2390 C   0  0  0  0  0  0  0  0  0  0  0  0
  -14.4368    4.8809   27.8198 C   0  0  0  0  0  0  0  0  0  0  0  0
  -14.8607    4.3079   29.0017 C   0  0  0  0  0  0  0  0  0  0  0  0
  -14.0894    3.3006   29.5591 C   0  0  0  0  0  0  0  0  0  0  0  0
  -12.9206    2.8929   28.9706 C   0  0  0  0  0  0  0  0  0  0  0  0
  1  2  2  3
  1  3  1  0
  2  9  1  0
  5 10  1  0
  8 16  1  0
 10 11  2  0
 11 13  1  0
 13 15  2  0
 15 14  1  0
 14 12  2  0
 12 10  1  0
  3  4  2  0
  4  5  1  0
  5  6  2  0
  6  8  1  0
  8  7  2  0
  7  3  1  0
 16 17  2  0
 17 18  1  0
 18 19  2  0
 19 20  1  0
 20 21  2  0
 21 16  1  0
M  END
$$$$
