No_5672-complexes_sdf/6BKW-FPZ/2024-09-17-14-21-01/
     RDKit          3D

 28 31  0  0  0  0  0  0  0  0999 V2000
   -7.7129    4.2099   27.0854 C   0  0  0  0  0  0  0  0  0  0  0  0
   -8.9133    4.4736   27.0998 C   0  0  0  0  0  0  0  0  0  0  0  0
   -9.4643    5.5426   27.7628 C   0  0  0  0  0  0  0  0  0  0  0  0
   -6.8373    4.9942   27.9785 C   0  0  0  0  0  0  0  0  0  0  0  0
   -7.3717    6.0428   28.6744 C   0  0  0  0  0  0  0  0  0  0  0  0
   -8.6869    6.3937   28.5345 C   0  0  0  0  0  0  0  0  0  0  0  0
   -9.9433    3.6983   26.3265 C   0  0  1  0  0  0  0  0  0  0  0  0
  -10.9601    3.0968   26.8980 C   0  0  0  0  0  0  0  0  0  0  0  0
  -11.7747    2.2960   26.4220 C   0  0  2  0  0  0  0  0  0  0  0  0
  -10.4193    4.4331   25.1588 C   0  0  0  0  0  0  0  0  0  0  0  0
  -11.3193    3.6692   24.2739 C   0  0  0  0  0  0  0  0  0  0  0  0
  -12.4097    3.0201   25.0645 C   0  0  0  0  0  0  0  0  0  0  0  0
   -9.0642    2.5054   25.6110 C   0  0  0  0  0  0  0  0  0  0  0  0
   -9.1323    1.2363   26.2308 C   0  0  0  0  0  0  0  0  0  0  0  0
   -9.1795    1.1277   27.5268 C   0  0  0  0  0  0  0  0  0  0  0  0
   -8.8762    0.1335   25.3746 C   0  0  0  0  0  0  0  0  0  0  0  0
   -8.8487   -0.9459   25.6562 C   0  0  0  0  0  0  0  0  0  0  0  0
   -9.1478   -0.3183   28.0411 C   0  0  0  0  0  0  0  0  0  0  0  0
   -8.9308   -1.3371   27.1553 C   0  0  0  0  0  0  0  0  0  0  0  0
  -12.3997    1.1270   26.6524 C   0  0  0  0  0  0  0  0  0  0  0  0
  -13.6612    1.1875   27.0627 C   0  0  0  0  0  0  0  0  0  0  0  0
  -14.2874   -0.0484   27.4424 C   0  0  0  0  0  0  0  0  0  0  0  0
  -13.8198   -0.9778   27.3898 C   0  0  0  0  0  0  0  0  0  0  0  0
  -12.4603   -1.2547   26.9686 C   0  0  0  0  0  0  0  0  0  0  0  0
  -11.7912   -0.0813   26.5934 C   0  0  0  0  0  0  0  0  0  0  0  0
   -8.8985   -2.7129   27.5695 C   0  0  0  0  0  0  0  0  0  0  0  0
   -9.1328   -3.6523   26.8455 C   0  0  0  0  0  0  0  0  0  0  0  0
   -9.1198   -4.9636   27.3052 C   0  0  0  0  0  0  0  0  0  0  0  0
  2  7  1  0
  7  8  1  0
  7 10  1  0
 10 11  1  0
  9 12  1  0
 11 12  1  0
  7 13  1  6
 13 14  1  0
  9 20  1  1
 19 26  1  0
 26 27  2  3
 27 28  1  0
  8  9  1  0
 14 15  2  0
 15 18  1  0
 18 19  2  0
 19 17  1  0
 17 16  2  0
 16 14  1  0
  1  2  2  0
  2  3  1  0
  3  6  2  0
  6  5  1  0
  5  4  2  0
  4  1  1  0
 20 21  2  0
 21 22  1  0
 22 23  2  0
 23 24  1  0
 24 25  2  0
 25 20  1  0
M  END
$$$$
