No_5499-complexes_sdf/6BKW-FPZ/2024-09-17-14-21-01/
     RDKit          3D

 40 44  0  0  0  0  0  0  0  0999 V2000
   -7.9040    3.9820   27.1177 C   0  0  0  0  0  0  0  0  0  0  0  0
   -9.0711    4.3164   27.0630 C   0  0  0  0  0  0  0  0  0  0  0  0
   -9.5294    5.4517   27.7215 C   0  0  0  0  0  0  0  0  0  0  0  0
   -6.9328    4.7309   27.8881 C   0  0  0  0  0  0  0  0  0  0  0  0
   -7.3666    5.8455   28.5488 C   0  0  0  0  0  0  0  0  0  0  0  0
   -8.6669    6.2428   28.4199 C   0  0  0  0  0  0  0  0  0  0  0  0
  -10.0479    3.5083   26.2510 C   0  0  0  0  0  0  0  0  0  0  0  0
   -9.8002    3.3891   24.9776 N   0  0  0  0  0  0  0  0  0  0  0  0
  -10.3853    2.6164   24.0673 C   0  0  0  0  0  0  0  0  0  0  0  0
   -9.9262    2.6327   22.7438 C   0  0  0  0  0  0  0  0  0  0  0  0
  -11.4145    1.7423   24.4592 C   0  0  0  0  0  0  0  0  0  0  0  0
  -10.3958    1.6842   21.7873 C   0  0  0  0  0  0  0  0  0  0  0  0
  -11.9406    0.8729   23.4616 C   0  0  0  0  0  0  0  0  0  0  0  0
  -11.4327    0.8819   22.1504 C   0  0  0  0  0  0  0  0  0  0  0  0
  -11.1630    3.2029   26.7506 O   0  0  0  0  0  0  0  0  0  0  0  0
  -12.0548   -0.0862   21.2513 C   0  0  0  0  0  0  0  0  0  0  0  0
  -11.5058   -0.2381   20.0629 C   0  0  0  0  0  0  0  0  0  0  0  0
  -12.0549   -1.1089   19.1230 C   0  0  0  0  0  0  0  0  0  0  0  0
  -13.1585   -1.8202   19.4693 C   0  0  0  0  0  0  0  0  0  0  0  0
  -13.6896   -1.6481   20.6880 C   0  0  0  0  0  0  0  0  0  0  0  0
  -13.1530   -0.7785   21.5947 C   0  0  0  0  0  0  0  0  0  0  0  0
  -13.7250   -2.6815   18.5826 O   0  0  0  0  0  0  0  0  0  0  0  0
  -13.6622   -2.9524   17.5490 C   0  0  0  0  0  0  0  0  0  0  0  0
  -13.2655   -2.6456   16.6259 C   0  0  0  0  0  0  0  0  0  0  0  0
  -14.3996   -4.3608   17.2402 C   0  0  0  0  0  0  0  0  0  0  0  0
  -13.1942   -3.0710   15.2613 C   0  0  0  0  0  0  0  0  0  0  0  0
  -14.4565   -4.8457   16.0135 C   0  0  0  0  0  0  0  0  0  0  0  0
  -13.8520   -4.2187   15.0083 C   0  0  0  0  0  0  0  0  0  0  0  0
  -13.9066   -4.7533   13.6481 C   0  0  0  0  0  0  0  0  0  0  0  0
  -14.4689   -5.6071   13.1859 O   0  0  0  0  0  0  0  0  0  0  0  0
  -13.0176   -4.0240   12.7441 N   0  0  0  0  0  0  0  0  0  0  0  0
  -12.9269   -4.4154   11.3919 C   0  0  0  0  0  0  0  0  0  0  0  0
  -12.2257   -3.6032   10.7073 C   0  0  0  0  0  0  0  0  0  0  0  0
  -12.0455   -3.8230    9.2901 C   0  0  0  0  0  0  0  0  0  0  0  0
  -12.6827   -4.9785    8.7690 C   0  0  0  0  0  0  0  0  0  0  0  0
  -13.3209   -5.6486    9.5797 C   0  0  0  0  0  0  0  0  0  0  0  0
  -13.5323   -5.4933   10.9220 C   0  0  0  0  0  0  0  0  0  0  0  0
  -14.0269   -6.9255    8.9826 C   0  0  0  0  0  0  0  0  0  0  0  0
  -13.5158   -7.5505    8.0014 C   0  0  0  0  0  0  0  0  0  0  0  0
  -12.6686   -6.6906    7.1827 C   0  0  0  0  0  0  0  0  0  0  0  0
  2  7  1  0
  7  8  1  0
  7 15  2  0
 14 16  1  0
 19 22  1  0
 22 23  1  0
 28 29  1  0
 29 30  2  0
 29 31  1  0
 31 32  1  0
 36 38  1  0
 38 39  2  3
 39 40  1  0
  8  9  1  0
 32 33  2  0
 33 34  1  0
 34 35  2  0
 35 36  1  0
 36 37  2  0
 37 32  1  0
  9 10  2  0
 10 12  1  0
 12 14  2  0
 14 13  1  0
 13 11  2  0
 11  9  1  0
  1  2  2  0
  2  3  1  0
  3  6  2  0
  6  5  1  0
  5  4  2  0
  4  1  1  0
 23 24  2  0
 24 26  1  0
 26 28  2  0
 28 27  1  0
 27 25  2  0
 25 23  1  0
 16 17  2  0
 17 18  1  0
 18 19  2  0
 19 20  1  0
 20 21  2  0
 21 16  1  0
M  END
$$$$
