No_5816-complexes_sdf/6BKW-FPZ/2024-09-17-14-21-01/
     RDKit          3D

 18 19  0  0  0  0  0  0  0  0999 V2000
   -7.2496    3.8871   27.4508 C   0  0  0  0  0  0  0  0  0  0  0  0
   -7.6161    2.7143   27.1523 C   0  0  0  0  0  0  0  0  0  0  0  0
   -8.8302    2.4659   26.5056 C   0  0  0  0  0  0  0  0  0  0  0  0
   -8.1584    5.0090   27.3234 C   0  0  0  0  0  0  0  0  0  0  0  0
   -9.3788    4.7965   26.7695 C   0  0  0  0  0  0  0  0  0  0  0  0
   -9.7028    3.5649   26.3276 C   0  0  0  0  0  0  0  0  0  0  0  0
   -6.5552    1.6737   27.4428 C   0  0  0  0  0  0  0  0  0  0  0  0
   -6.9711    0.4801   27.6600 O   0  0  0  0  0  0  0  0  0  0  0  0
   -5.3452    1.9659   27.8550 N   0  0  0  0  0  0  0  0  0  0  0  0
   -7.7420    6.2271   27.7715 F   0  0  0  0  0  0  0  0  0  0  0  0
   -4.3330    0.9275   28.1366 C   0  0  0  0  0  0  0  0  0  0  0  0
   -4.4403   -0.2119   27.4609 C   0  0  0  0  0  0  0  0  0  0  0  0
   -3.3910   -0.4593   26.9313 C   0  0  0  0  0  0  0  0  0  0  0  0
   -3.3919   -1.5778   25.9061 C   0  0  0  0  0  0  0  0  0  0  0  0
   -4.5643   -2.1315   25.4900 C   0  0  0  0  0  0  0  0  0  0  0  0
   -5.7341   -1.6754   26.1013 C   0  0  0  0  0  0  0  0  0  0  0  0
   -5.6739   -0.6646   27.0445 C   0  0  0  0  0  0  0  0  0  0  0  0
   -5.8268   -1.3719   28.2188 F   0  0  0  0  0  0  0  0  0  0  0  0
  2  7  1  0
  7  8  2  0
  7  9  1  0
  4 10  1  0
  9 11  1  0
 11 12  1  0
 17 18  1  0
 12 13  2  0
 13 14  1  0
 14 15  2  0
 15 16  1  0
 16 17  2  0
 17 12  1  0
  1  2  2  0
  2  3  1  0
  3  6  2  0
  6  5  1  0
  5  4  2  0
  4  1  1  0
M  END
$$$$
