No_547-complexes_sdf/6BKW-FPZ/2024-09-17-14-21-01/
     RDKit          3D

 19 20  0  0  0  0  0  0  0  0999 V2000
   -7.7129    4.2099   27.0854 C   0  0  0  0  0  0  0  0  0  0  0  0
   -8.2112    3.0637   26.9225 C   0  0  0  0  0  0  0  0  0  0  0  0
   -9.4446    2.8304   26.1868 C   0  0  0  0  0  0  0  0  0  0  0  0
   -8.4697    5.3956   26.7238 C   0  0  0  0  0  0  0  0  0  0  0  0
   -8.0091    6.7588   26.9904 C   0  0  0  0  0  0  0  0  0  0  0  0
  -10.1208    3.9213   25.7408 C   0  0  0  0  0  0  0  0  0  0  0  0
   -9.5939    5.2026   25.9665 C   0  0  0  0  0  0  0  0  0  0  0  0
   -8.6501    7.8970   26.5643 C   0  0  0  0  0  0  0  0  0  0  0  0
   -7.6805    1.7078   27.3329 C   0  0  0  0  0  0  0  0  0  0  0  0
   -7.0306    0.8450   26.5864 C   0  0  0  0  0  0  0  0  0  0  0  0
   -7.7463   -0.0942   26.0013 C   0  0  0  0  0  0  0  0  0  0  0  0
   -7.1699   -0.8248   24.9918 C   0  0  0  0  0  0  0  0  0  0  0  0
   -5.7795   -1.0538   25.0580 C   0  0  0  0  0  0  0  0  0  0  0  0
   -5.0157   -0.2827   25.9203 C   0  0  0  0  0  0  0  0  0  0  0  0
   -5.5935    0.6962   26.7029 C   0  0  0  0  0  0  0  0  0  0  0  0
   -6.9655    6.7641   27.8953 O   0  0  0  0  0  0  0  0  0  0  0  0
   -4.7656    1.5175   27.6032 C   0  0  0  0  0  0  0  0  0  0  0  0
   -3.5066    1.2109   27.7160 N   0  0  0  0  0  0  0  0  0  0  0  0
   -5.3256    2.3761   28.3535 O   0  0  0  0  0  0  0  0  0  0  0  0
  4  5  1  0
  5  8  1  0
  2  9  1  0
  9 10  1  0
  5 16  2  0
 15 17  1  0
 17 18  2  0
 17 19  1  0
  1  2  2  0
  2  3  1  0
  3  6  2  0
  6  7  1  0
  7  4  2  0
  4  1  1  0
 10 11  2  0
 11 12  1  0
 12 13  2  0
 13 14  1  0
 14 15  2  0
 15 10  1  0
M  END
$$$$
