No_5097-complexes_sdf/6BKW-FPZ/2024-09-17-14-21-01/
     RDKit          3D

 23 25  0  0  0  0  0  0  0  0999 V2000
   -7.9040    3.9820   27.1177 C   0  0  0  0  0  0  0  0  0  0  0  0
   -9.0711    4.3164   27.0630 C   0  0  0  0  0  0  0  0  0  0  0  0
   -9.5182    5.5541   27.5777 C   0  0  0  0  0  0  0  0  0  0  0  0
   -6.9424    4.7983   27.8424 C   0  0  0  0  0  0  0  0  0  0  0  0
   -7.3526    5.9739   28.3909 C   0  0  0  0  0  0  0  0  0  0  0  0
   -8.6479    6.3742   28.2170 C   0  0  0  0  0  0  0  0  0  0  0  0
  -10.0793    3.4689   26.3368 C   0  0  0  0  0  0  0  0  0  0  0  0
   -9.7275    2.6597   25.4777 N   0  0  0  0  0  0  0  0  0  0  0  0
  -10.4390    2.1260   24.4731 C   0  0  0  0  0  0  0  0  0  0  0  0
  -11.0726    2.8917   23.7339 C   0  0  0  0  0  0  0  0  0  0  0  0
  -11.8943    2.5280   22.7607 C   0  0  0  0  0  0  0  0  0  0  0  0
  -11.9135    1.1933   22.3542 C   0  0  0  0  0  0  0  0  0  0  0  0
  -10.3172    0.7726   24.0711 C   0  0  0  0  0  0  0  0  0  0  0  0
   -9.3937   -0.1195   24.8455 C   0  0  0  0  0  0  0  0  0  0  0  0
  -11.0465    0.3087   23.0160 C   0  0  0  0  0  0  0  0  0  0  0  0
   -8.5422   -0.3437   25.3616 C   0  0  0  0  0  0  0  0  0  0  0  0
   -7.7702   -1.1358   26.1936 C   0  0  0  0  0  0  0  0  0  0  0  0
   -8.3176   -2.1144   27.0416 C   0  0  0  0  0  0  0  0  0  0  0  0
   -7.5593   -2.6954   28.0213 C   0  0  0  0  0  0  0  0  0  0  0  0
   -6.7161   -2.2718   28.3640 C   0  0  0  0  0  0  0  0  0  0  0  0
   -5.8614   -1.1890   27.8564 C   0  0  0  0  0  0  0  0  0  0  0  0
   -6.5650   -0.5280   26.7857 C   0  0  0  0  0  0  0  0  0  0  0  0
  -11.3102    3.7077   26.5329 O   0  0  0  0  0  0  0  0  0  0  0  0
  2  7  1  0
  7  8  1  0
  8  9  1  0
 13 14  1  0
 14 16  2  3
 16 17  1  0
  7 23  2  0
 17 18  2  0
 18 19  1  0
 19 20  2  0
 20 21  1  0
 21 22  2  0
 22 17  1  0
  9 10  2  0
 10 11  1  0
 11 12  2  0
 12 15  1  0
 15 13  2  0
 13  9  1  0
  1  2  2  0
  2  3  1  0
  3  6  2  0
  6  5  1  0
  5  4  2  0
  4  1  1  0
M  END
$$$$
