No_5734-complexes_sdf/6BKW-FPZ/2024-09-17-14-21-01/
     RDKit          3D

 11 11  0  0  0  0  0  0  0  0999 V2000
   -7.2496    3.8871   27.4508 C   0  0  0  0  0  0  0  0  0  0  0  0
   -7.6161    2.7143   27.1523 C   0  0  0  0  0  0  0  0  0  0  0  0
   -8.6212    2.2239   26.4073 C   0  0  0  0  0  0  0  0  0  0  0  0
   -8.2540    4.9237   27.1711 C   0  0  0  0  0  0  0  0  0  0  0  0
   -8.0482    6.2918   27.4896 C   0  0  0  0  0  0  0  0  0  0  0  0
   -9.5812    3.2431   26.0960 C   0  0  0  0  0  0  0  0  0  0  0  0
   -9.3651    4.5697   26.4537 C   0  0  0  0  0  0  0  0  0  0  0  0
   -8.5379    7.1769   26.3524 Br  0  0  0  0  0  0  0  0  0  0  0  0
   -8.8372    0.8505   26.1110 C   0  0  0  0  0  0  0  0  0  0  0  0
   -9.0595    0.4962   24.9503 C   0  0  0  0  0  0  0  0  0  0  0  0
   -9.2381   -0.8934   24.5583 C   0  0  0  0  0  0  0  0  0  0  0  0
  4  5  1  0
  5  8  1  0
  3  9  1  0
  9 10  2  3
 10 11  1  0
  1  2  2  0
  2  3  1  0
  3  6  2  0
  6  7  1  0
  7  4  2  0
  4  1  1  0
M  END
$$$$
