No_5549-complexes_sdf/6BKW-FPZ/2024-09-17-14-21-01/
     RDKit          3D

 17 19  0  0  0  0  0  0  0  0999 V2000
   -7.2496    3.8871   27.4508 C   0  0  0  0  0  0  0  0  0  0  0  0
   -7.9379    4.9063   27.8518 C   0  0  0  0  0  0  0  0  0  0  0  0
   -8.7729    5.5444   27.0168 C   0  0  0  0  0  0  0  0  0  0  0  0
   -6.2858    3.2138   28.3467 C   0  0  0  0  0  0  0  0  0  0  0  0
   -9.2459    4.9714   25.8185 C   0  0  0  0  0  0  0  0  0  0  0  0
   -8.7245    3.6550   25.5132 C   0  0  0  0  0  0  0  0  0  0  0  0
   -7.8326    3.1219   26.4052 C   0  0  0  0  0  0  0  0  0  0  0  0
   -5.6873    1.9697   27.9543 C   0  0  0  0  0  0  0  0  0  0  0  0
   -4.5740    1.4852   28.6364 C   0  0  0  0  0  0  0  0  0  0  0  0
   -4.0814    0.2839   28.2880 C   0  0  0  0  0  0  0  0  0  0  0  0
   -4.6252   -0.4580   27.2480 C   0  0  0  0  0  0  0  0  0  0  0  0
   -5.7138   -0.0054   26.5511 C   0  0  0  0  0  0  0  0  0  0  0  0
   -6.2417    1.2362   26.8913 C   0  0  0  0  0  0  0  0  0  0  0  0
   -7.3353    1.8347   26.0664 N   0  0  0  0  0  0  0  0  0  0  0  0
   -2.8875   -0.2763   29.0741 C   0  0  0  0  0  0  0  0  0  0  0  0
   -1.8019   -0.3973   28.5750 O   0  0  0  0  0  0  0  0  0  0  0  0
   -3.1628   -0.7523   30.3556 O   0  0  0  0  0  0  0  0  0  0  0  0
 10 15  1  0
 15 16  2  0
 15 17  1  0
  8  9  1  0
  9 10  2  0
 10 11  1  0
 11 12  2  0
 12 13  1  0
  1  4  1  0
  4  8  2  0
  8 13  1  0
 13 14  2  0
 14  7  1  0
  1  2  2  0
  2  3  1  0
  3  5  2  0
  5  6  1  0
  6  7  2  0
  7  1  1  0
M  END
$$$$
