No_5037-complexes_sdf/6BKW-FPZ/2024-09-17-14-21-01/
     RDKit          3D

 14 14  0  0  0  0  0  0  0  0999 V2000
   -7.7129    4.2099   27.0854 C   0  0  0  0  0  0  0  0  0  0  0  0
   -8.2112    3.0637   26.9225 C   0  0  0  0  0  0  0  0  0  0  0  0
   -8.4224    5.2106   27.8516 C   0  0  0  0  0  0  0  0  0  0  0  0
   -9.5628    2.7160   27.4089 C   0  0  0  0  0  0  0  0  0  0  0  0
  -10.0990    1.4393   27.3379 C   0  0  0  0  0  0  0  0  0  0  0  0
   -9.6439    5.1378   27.8058 C   0  0  0  0  0  0  0  0  0  0  0  0
  -10.3193    3.8257   27.9004 C   0  0  0  0  0  0  0  0  0  0  0  0
  -10.9844    1.2335   28.2886 F   0  0  0  0  0  0  0  0  0  0  0  0
  -10.3778    1.0686   26.1050 F   0  0  0  0  0  0  0  0  0  0  0  0
   -9.0291    0.5657   27.8005 F   0  0  0  0  0  0  0  0  0  0  0  0
   -7.5859    6.7503   27.7358 Cl  0  0  0  0  0  0  0  0  0  0  0  0
  -11.5183    3.6869   28.2378 F   0  0  0  0  0  0  0  0  0  0  0  0
   -7.4943    2.0536   26.4600 O   0  0  0  0  0  0  0  0  0  0  0  0
   -6.7964    1.2795   27.0745 C   0  0  0  0  0  0  0  0  0  0  0  0
  4  5  1  0
  5  8  1  0
  5  9  1  0
  5 10  1  0
  3 11  1  0
  7 12  1  0
  2 13  1  0
 13 14  1  0
  1  2  2  0
  2  4  1  0
  4  7  2  0
  7  6  1  0
  6  3  2  0
  3  1  1  0
M  END
$$$$
