No_5160-complexes_sdf/6BKW-FPZ/2024-09-17-14-21-01/
     RDKit          3D

 14 15  0  0  0  0  0  0  0  0999 V2000
   -7.7129    4.2099   27.0854 C   0  0  0  0  0  0  0  0  0  0  0  0
   -7.7814    5.1722   27.8972 C   0  0  2  0  0  0  0  0  0  0  0  0
   -8.8998    3.8713   26.3707 C   0  0  1  0  0  0  0  0  0  0  0  0
   -9.7507    4.7502   26.0937 C   0  0  2  0  0  0  0  0  0  0  0  0
   -8.5557    6.3760   27.5754 C   0  0  0  0  0  0  0  0  0  0  0  0
   -9.7727    6.0382   26.9056 C   0  0  0  0  0  0  0  0  0  0  0  0
   -8.9576    2.5306   25.7106 C   0  0  0  0  0  0  0  0  0  0  0  0
   -8.3840    1.4587   26.4475 C   0  0  0  0  0  0  0  0  0  0  0  0
   -8.3567    0.1854   25.9442 C   0  0  0  0  0  0  0  0  0  0  0  0
   -8.8766   -0.0345   24.7835 C   0  0  0  0  0  0  0  0  0  0  0  0
   -9.4032    2.2379   24.4807 C   0  0  0  0  0  0  0  0  0  0  0  0
   -9.3647    0.9970   23.9856 C   0  0  0  0  0  0  0  0  0  0  0  0
  -11.1719    4.6007   24.9358 Br  0  0  0  0  0  0  0  0  0  0  0  0
   -6.7086    5.5563   28.6251 F   0  0  0  0  0  0  0  0  0  0  0  0
  1  2  1  0
  1  3  1  0
  3  4  1  0
  2  5  1  0
  4  6  1  0
  5  6  1  0
  3  7  1  6
  4 13  1  1
  2 14  1  6
  7  8  2  0
  8  9  1  0
  9 10  2  0
 10 12  1  0
 12 11  2  0
 11  7  1  0
M  END
$$$$
