No_5852-complexes_sdf/6BKW-FPZ/2024-09-17-14-21-01/
     RDKit          3D

 24 27  0  0  0  0  0  0  0  0999 V2000
   -7.9040    3.9820   27.1177 C   0  0  0  0  0  0  0  0  0  0  0  0
   -7.8663    4.8694   27.9238 C   0  0  0  0  0  0  0  0  0  0  0  0
   -9.0501    3.8017   26.2617 C   0  0  0  0  0  0  0  0  0  0  0  0
  -10.0189    4.7608   26.3707 C   0  0  0  0  0  0  0  0  0  0  0  0
   -8.6973    5.9722   27.8968 C   0  0  0  0  0  0  0  0  0  0  0  0
   -9.8216    5.8946   27.1241 C   0  0  0  0  0  0  0  0  0  0  0  0
   -9.1437    2.6293   25.4175 C   0  0  0  0  0  0  0  0  0  0  0  0
   -8.6100    1.5009   25.7781 N   0  0  0  0  0  0  0  0  0  0  0  0
   -8.5030    0.4530   24.9505 C   0  0  0  0  0  0  0  0  0  0  0  0
   -9.7373    2.7692   24.3138 O   0  0  0  0  0  0  0  0  0  0  0  0
   -8.8538   -0.8143   25.5062 C   0  0  0  0  0  0  0  0  0  0  0  0
   -8.1160   -1.1741   26.4242 C   0  0  1  0  0  0  0  0  0  0  0  0
   -7.6642   -0.0794   27.4234 C   0  0  2  0  0  0  0  0  0  0  0  0
   -8.1145    1.1822   27.1535 C   0  0  0  0  0  0  0  0  0  0  0  0
   -8.0028   -2.5322   27.0390 C   0  0  0  0  0  0  0  0  0  0  0  0
   -7.3030   -2.8763   27.9573 N   0  0  0  0  0  0  0  0  0  0  0  0
   -7.3563   -3.9911   28.5862 C   0  0  0  0  0  0  0  0  0  0  0  0
   -8.3522   -3.3909   26.1311 O   0  0  0  0  0  0  0  0  0  0  0  0
   -6.9808   -4.2554   29.7209 C   0  0  0  0  0  0  0  0  0  0  0  0
   -6.1948   -3.2513   30.5469 C   0  0  0  0  0  0  0  0  0  0  0  0
   -6.0645   -1.9682   29.8401 C   0  0  0  0  0  0  0  0  0  0  0  0
   -6.6368   -1.7393   28.6824 C   0  0  2  0  0  0  0  0  0  0  0  0
   -6.7936   -0.3717   28.3026 C   0  0  0  0  0  0  0  0  0  0  0  0
   -6.7021    5.1038   28.7111 O   0  0  0  0  0  0  0  0  0  0  0  0
  3  7  1  0
  7  8  1  0
  8  9  1  0
  7 10  2  0
  9 11  1  0
 12 13  1  0
  8 14  1  0
 12 15  1  0
 15 16  1  0
 16 17  1  0
 15 18  2  0
 19 20  1  0
 16 22  1  0
 22 21  1  1
 13 23  1  6
 22 23  1  0
  2 24  1  0
 12 11  1  1
 13 14  1  0
 17 19  1  0
 20 21  1  0
  1  2  2  0
  2  5  1  0
  5  6  2  0
  6  4  1  0
  4  3  2  0
  3  1  1  0
M  END
$$$$
