No_5521-complexes_sdf/6BKW-FPZ/2024-09-17-14-21-01/
     RDKit          3D

 15 16  0  0  0  0  0  0  0  0999 V2000
   -7.9040    3.9820   27.1177 C   0  0  0  0  0  0  0  0  0  0  0  0
   -7.8663    4.8694   27.9238 C   0  0  0  0  0  0  0  0  0  0  0  0
   -9.0501    3.8017   26.2617 C   0  0  0  0  0  0  0  0  0  0  0  0
   -9.1826    2.7026   25.3575 C   0  0  0  0  0  0  0  0  0  0  0  0
   -8.6940    6.0131   27.8614 C   0  0  0  0  0  0  0  0  0  0  0  0
  -10.1138    4.6733   26.4644 C   0  0  0  0  0  0  0  0  0  0  0  0
   -9.8579    5.8496   27.1764 C   0  0  0  0  0  0  0  0  0  0  0  0
   -8.6968    1.4750   25.7160 C   0  0  0  0  0  0  0  0  0  0  0  0
   -8.7915    0.4039   24.8284 C   0  0  0  0  0  0  0  0  0  0  0  0
   -8.2281   -0.8115   25.1307 C   0  0  0  0  0  0  0  0  0  0  0  0
   -7.5565   -0.9937   26.3678 C   0  0  0  0  0  0  0  0  0  0  0  0
   -7.4964    0.0449   27.2967 C   0  0  0  0  0  0  0  0  0  0  0  0
   -7.9977    1.2485   27.0041 C   0  0  0  0  0  0  0  0  0  0  0  0
   -9.9176    2.8973   24.1731 C   0  0  0  0  0  0  0  0  0  0  0  0
  -10.6015    4.1037   23.9580 C   0  0  0  0  0  0  0  0  0  0  0  0
  3  4  1  0
  4 14  1  0
 14 15  2  0
  4  8  1  0
  8  9  2  0
  9 10  1  0
 10 11  2  0
 11 12  1  0
 12 13  2  0
 13  8  1  0
  1  2  2  0
  2  5  1  0
  5  7  2  0
  7  6  1  0
  6  3  2  0
  3  1  1  0
M  END
$$$$
