No_5084-complexes_sdf/6BKW-FPZ/2024-09-17-14-21-01/
     RDKit          3D

 40 44  0  0  0  0  0  0  0  0999 V2000
   -7.7129    4.2099   27.0854 C   0  0  0  0  0  0  0  0  0  0  0  0
   -8.2112    3.0637   26.9225 C   0  0  2  0  0  0  0  0  0  0  0  0
   -7.0021    4.5281   28.2396 C   0  0  0  0  0  0  0  0  0  0  0  0
   -9.4237    2.7810   26.2714 C   0  0  0  0  0  0  0  0  0  0  0  0
   -9.8781    3.7859   25.4663 C   0  0  2  0  0  0  0  0  0  0  0  0
   -9.3689    5.0975   25.5965 C   0  0  0  0  0  0  0  0  0  0  0  0
   -8.4784    5.3402   26.5448 C   0  0  0  0  0  0  0  0  0  0  0  0
  -10.9798    3.5389   24.5162 C   0  0  0  0  0  0  0  0  0  0  0  0
  -10.8020    3.9004   23.2347 C   0  0  0  0  0  0  0  0  0  0  0  0
  -11.4492    3.5807   22.2610 C   0  0  0  0  0  0  0  0  0  0  0  0
  -11.0600    3.9024   20.8598 C   0  0  0  0  0  0  0  0  0  0  0  0
   -9.9875    4.7547   20.7062 C   0  0  0  0  0  0  0  0  0  0  0  0
   -9.4940    5.3223   21.8084 C   0  0  0  0  0  0  0  0  0  0  0  0
   -9.7227    4.9791   23.0111 C   0  0  0  0  0  0  0  0  0  0  0  0
  -12.1115    2.8664   24.9464 C   0  0  0  0  0  0  0  0  0  0  0  0
  -13.2210    3.6353   25.2044 C   0  0  0  0  0  0  0  0  0  0  0  0
  -14.4562    3.1540   25.5984 C   0  0  0  0  0  0  0  0  0  0  0  0
  -12.2335    1.5134   25.0357 C   0  0  0  0  0  0  0  0  0  0  0  0
  -13.4398    0.9072   25.4189 C   0  0  0  0  0  0  0  0  0  0  0  0
  -14.5311    1.7661   25.7355 C   0  0  0  0  0  0  0  0  0  0  0  0
   -7.5502    1.8182   27.5534 C   0  0  0  0  0  0  0  0  0  0  0  0
   -6.6948    1.0812   26.7066 C   0  0  0  0  0  0  0  0  0  0  0  0
   -5.8000    0.2766   27.5055 C   0  0  0  0  0  0  0  0  0  0  0  0
   -4.6712    0.9863   27.9198 C   0  0  0  0  0  0  0  0  0  0  0  0
   -3.6832    0.3768   28.7990 C   0  0  0  0  0  0  0  0  0  0  0  0
   -3.8202   -0.9670   29.1807 C   0  0  0  0  0  0  0  0  0  0  0  0
   -4.9934   -1.6433   28.7235 C   0  0  0  0  0  0  0  0  0  0  0  0
   -5.9191   -1.0025   27.9116 C   0  0  0  0  0  0  0  0  0  0  0  0
   -2.8519   -1.5368   30.0642 C   0  0  0  0  0  0  0  0  0  0  0  0
   -1.8132   -2.1124   29.6395 N   0  0  0  0  0  0  0  0  0  0  0  0
   -3.0874   -1.4900   31.5080 C   0  0  0  0  0  0  0  0  0  0  0  0
   -3.7879   -0.5127   32.1032 C   0  0  0  0  0  0  0  0  0  0  0  0
   -1.8839   -1.8969   32.2767 C   0  0  0  0  0  0  0  0  0  0  0  0
   -1.9699   -1.7982   33.7187 C   0  0  0  0  0  0  0  0  0  0  0  0
   -2.9234   -0.9424   34.3111 C   0  0  0  0  0  0  0  0  0  0  0  0
   -3.9105   -0.3912   33.5195 C   0  0  0  0  0  0  0  0  0  0  0  0
   -1.3678   -3.2379   29.6800 C   0  0  0  0  0  0  0  0  0  0  0  0
   -2.1128   -4.2472   29.6915 C   0  0  0  0  0  0  0  0  0  0  0  0
   -1.6997   -5.5216   29.9615 C   0  0  0  0  0  0  0  0  0  0  0  0
    0.0849   -3.4414   29.7350 C   0  0  0  0  0  0  0  0  0  0  0  0
  1  2  1  0
  1  3  2  0
  2  4  1  0
  4  5  1  0
  5  6  1  0
  1  7  1  0
  6  7  1  0
  5  8  1  1
  8 15  1  0
  2 21  1  1
 21 22  1  0
 22 23  1  0
 26 29  1  0
 29 30  1  0
 29 31  1  0
 30 37  1  0
 37 38  1  0
 38 39  2  0
 37 40  1  0
  8  9  1  0
 23 24  2  0
 24 25  1  0
 25 26  2  0
 26 27  1  0
 27 28  2  0
 28 23  1  0
  9 10  2  0
 10 11  1  0
 11 12  2  0
 12 13  1  0
 13 14  2  0
 14  9  1  0
 15 16  2  0
 16 17  1  0
 17 20  2  0
 20 19  1  0
 19 18  2  0
 18 15  1  0
 31 32  2  0
 32 36  1  0
 36 35  2  0
 35 34  1  0
 34 33  2  0
 33 31  1  0
M  END
$$$$
