No_5883-complexes_sdf/6BKW-FPZ/2024-09-17-14-21-01/
     RDKit          3D

 22 24  0  0  0  0  0  0  0  0999 V2000
   -7.7129    4.2099   27.0854 C   0  0  0  0  0  0  0  0  0  0  0  0
   -7.7814    5.1722   27.8972 C   0  0  0  0  0  0  0  0  0  0  0  0
   -7.3155    2.9699   27.6145 C   0  0  0  0  0  0  0  0  0  0  0  0
   -7.6814    1.8188   26.9581 C   0  0  0  0  0  0  0  0  0  0  0  0
   -8.6377    1.9131   25.9324 C   0  0  0  0  0  0  0  0  0  0  0  0
   -9.1866    3.0673   25.6037 C   0  0  0  0  0  0  0  0  0  0  0  0
   -8.8394    4.1752   26.2513 C   0  0  0  0  0  0  0  0  0  0  0  0
   -8.2486    6.4747   27.5719 N   0  0  0  0  0  0  0  0  0  0  0  0
   -9.1525    6.6854   26.5919 C   0  0  0  0  0  0  0  0  0  0  0  0
   -9.4607    5.4864   25.8772 C   0  0  0  0  0  0  0  0  0  0  0  0
   -7.0245    0.5340   27.2725 C   0  0  0  0  0  0  0  0  0  0  0  0
   -7.6629   -0.6899   27.1814 C   0  0  0  0  0  0  0  0  0  0  0  0
   -7.0237   -1.8556   27.5577 C   0  0  0  0  0  0  0  0  0  0  0  0
   -5.6900    0.5365   27.7625 C   0  0  0  0  0  0  0  0  0  0  0  0
   -5.0571   -0.6169   28.1546 C   0  0  0  0  0  0  0  0  0  0  0  0
   -5.7408   -1.8091   28.0928 C   0  0  0  0  0  0  0  0  0  0  0  0
   -3.6902   -0.5253   28.7694 C   0  0  0  0  0  0  0  0  0  0  0  0
   -3.7462   -0.0051   30.1511 C   0  0  0  0  0  0  0  0  0  0  0  0
   -2.5675   -0.8865   28.0818 C   0  0  0  0  0  0  0  0  0  0  0  0
   -4.0383    1.1207   30.3849 F   0  0  0  0  0  0  0  0  0  0  0  0
   -2.3840   -0.1266   30.6597 F   0  0  0  0  0  0  0  0  0  0  0  0
   -4.5075   -0.8549   30.9480 F   0  0  0  0  0  0  0  0  0  0  0  0
  4 11  1  0
 15 17  1  0
 17 18  1  0
 17 19  1  0
 18 20  1  0
 18 21  1  0
 18 22  1  0
  1  2  2  0
  2  8  1  0
  8  9  2  0
  9 10  1  0
 10  7  2  0
 11 12  2  0
 12 13  1  0
 13 16  2  0
 16 15  1  0
 15 14  2  0
 14 11  1  0
  1  3  1  0
  3  4  2  0
  4  5  1  0
  5  6  2  0
  6  7  1  0
  7  1  1  0
M  END
$$$$
