No_5204-complexes_sdf/6BKW-FPZ/2024-09-17-14-21-01/
     RDKit          3D

 33 36  0  0  0  0  0  0  0  0999 V2000
   -7.7129    4.2099   27.0854 C   0  0  0  0  0  0  0  0  0  0  0  0
   -8.2112    3.0637   26.9225 C   0  0  0  0  0  0  0  0  0  0  0  0
   -7.0021    4.5281   28.2396 C   0  0  0  0  0  0  0  0  0  0  0  0
   -7.5497    1.9016   27.4549 C   0  0  0  0  0  0  0  0  0  0  0  0
   -8.0831    0.6050   27.2852 C   0  0  0  0  0  0  0  0  0  0  0  0
   -7.4142   -0.4553   27.8488 C   0  0  0  0  0  0  0  0  0  0  0  0
   -9.3214    0.4340   26.6074 C   0  0  0  0  0  0  0  0  0  0  0  0
   -9.8107   -0.8170   26.4564 C   0  0  0  0  0  0  0  0  0  0  0  0
   -7.9603   -1.7352   27.7671 C   0  0  0  0  0  0  0  0  0  0  0  0
   -9.1773   -1.8904   27.0753 C   0  0  0  0  0  0  0  0  0  0  0  0
   -9.2660    2.8271   26.0190 C   0  0  0  0  0  0  0  0  0  0  0  0
   -9.9359    3.8980   25.3238 C   0  0  0  0  0  0  0  0  0  0  0  0
   -9.8468    1.5227   25.8407 C   0  0  0  0  0  0  0  0  0  0  0  0
   -8.4551    5.4089   26.5420 C   0  0  0  0  0  0  0  0  0  0  0  0
   -9.4422    5.2411   25.6058 C   0  0  0  0  0  0  0  0  0  0  0  0
  -10.7671    1.2936   25.0393 O   0  0  0  0  0  0  0  0  0  0  0  0
   -9.8023   -3.2276   27.0581 C   0  0  0  0  0  0  0  0  0  0  0  0
   -9.3901   -4.1761   27.5175 C   0  0  0  0  0  0  0  0  0  0  0  0
   -8.0742   -4.0201   28.2780 C   0  0  0  0  0  0  0  0  0  0  0  0
   -7.3853   -2.8558   28.4253 C   0  0  0  0  0  0  0  0  0  0  0  0
   -7.5878   -5.1524   28.9100 F   0  0  0  0  0  0  0  0  0  0  0  0
   -8.1035    6.7767   26.9400 C   0  0  0  0  0  0  0  0  0  0  0  0
   -8.8010    7.8316   26.6104 N   0  0  0  0  0  0  0  0  0  0  0  0
   -7.0832    6.8891   27.7868 O   0  0  0  0  0  0  0  0  0  0  0  0
   -6.1679   -2.7152   29.1857 C   0  0  0  0  0  0  0  0  0  0  0  0
   -5.0378   -2.4388   28.6973 C   0  0  0  0  0  0  0  0  0  0  0  0
   -3.8569   -2.2692   29.4594 C   0  0  0  0  0  0  0  0  0  0  0  0
   -2.6887   -1.5967   28.9448 C   0  0  0  0  0  0  0  0  0  0  0  0
   -2.7247   -1.2188   27.5645 C   0  0  0  0  0  0  0  0  0  0  0  0
   -3.8919   -1.3417   26.8526 C   0  0  0  0  0  0  0  0  0  0  0  0
   -4.9993   -1.8797   27.3636 C   0  0  0  0  0  0  0  0  0  0  0  0
   -5.6003   -2.5766   26.4017 O   0  0  0  0  0  0  0  0  0  0  0  0
   -3.7360   -0.7555   25.1952 Cl  0  0  0  0  0  0  0  0  0  0  0  0
  2  4  1  0
  4  5  1  0
  7 13  1  0
 11 13  1  0
 13 16  2  0
 19 21  1  0
 14 22  1  0
 22 23  1  0
 22 24  2  0
 20 25  1  0
 25 26  2  3
 26 27  1  0
 27 28  2  3
 28 29  1  0
 29 30  2  3
 26 31  1  0
 31 32  2  0
 30 33  1  0
  3  1  1  0
  1  2  2  0
  2 11  1  0
 11 12  2  0
 12 15  1  0
 15 14  2  0
 14  1  1  0
  5  6  2  0
  6  9  1  0
 10  8  1  0
  8  7  2  0
  7  5  1  0
  9 10  2  0
 10 17  1  0
 17 18  2  0
 18 19  1  0
 19 20  2  0
 20  9  1  0
M  END
$$$$
