No_5101-complexes_sdf/6BKW-FPZ/2024-09-17-14-21-01/
     RDKit          3D

 21 23  0  0  0  0  0  0  0  0999 V2000
   -7.2496    3.8871   27.4508 C   0  0  0  0  0  0  0  0  0  0  0  0
   -7.9379    4.9063   27.8518 C   0  0  0  0  0  0  0  0  0  0  0  0
   -9.3376    4.8647   27.7795 C   0  0  0  0  0  0  0  0  0  0  0  0
   -7.8544    2.6294   27.0414 C   0  0  0  0  0  0  0  0  0  0  0  0
   -9.2665    2.6175   27.0340 C   0  0  0  0  0  0  0  0  0  0  0  0
   -9.9836    3.7042   27.4150 C   0  0  0  0  0  0  0  0  0  0  0  0
   -9.7274    1.2799   26.5941 C   0  0  0  0  0  0  0  0  0  0  0  0
  -10.8609    0.9135   26.5528 C   0  0  0  0  0  0  0  0  0  0  0  0
  -11.3836    0.0286   26.4990 C   0  0  0  0  0  0  0  0  0  0  0  0
  -10.6019   -1.2114   26.2016 C   0  0  0  0  0  0  0  0  0  0  0  0
   -8.7359    0.2080   26.4270 C   0  0  0  0  0  0  0  0  0  0  0  0
   -9.2504   -1.0284   26.1657 C   0  0  0  0  0  0  0  0  0  0  0  0
   -7.3541    6.1133   28.1698 N   0  0  0  0  0  0  0  0  0  0  0  0
   -7.2872    0.4428   26.4019 C   0  0  0  0  0  0  0  0  0  0  0  0
   -6.9456    1.6293   26.7760 C   0  0  0  0  0  0  0  0  0  0  0  0
   -6.4087   -0.6390   26.1230 C   0  0  0  0  0  0  0  0  0  0  0  0
   -6.2228   -0.9691   24.9785 O   0  0  0  0  0  0  0  0  0  0  0  0
   -5.8557   -1.2609   27.1085 O   0  0  0  0  0  0  0  0  0  0  0  0
   -5.2937   -2.4591   27.1204 C   0  0  0  0  0  0  0  0  0  0  0  0
   -4.7280   -3.2375   27.4327 C   0  0  0  0  0  0  0  0  0  0  0  0
   -4.6034   -3.1870   28.7161 F   0  0  0  0  0  0  0  0  0  0  0  0
  2 13  1  0
 14 16  1  0
 16 17  2  0
 16 18  1  0
 18 19  1  0
 19 20  3  0
 20 21  1  0
  7  8  2  0
  8  9  1  0
  9 10  2  0
 10 12  1  0
 12 11  2  0
  1  2  2  0
  2  3  1  0
  3  6  2  0
  6  5  1  0
  4  1  1  0
  4  5  2  0
  5  7  1  0
  7 11  1  0
 11 14  1  0
 14 15  2  0
 15  4  1  0
M  END
$$$$
