No_5414-complexes_sdf/6BKW-FPZ/2024-09-17-14-21-01/
     RDKit          3D

 40 45  0  0  0  0  0  0  0  0999 V2000
   -7.2496    3.8871   27.4508 C   0  0  0  0  0  0  0  0  0  0  0  0
   -7.6161    2.7143   27.1523 C   0  0  0  0  0  0  0  0  0  0  0  0
   -6.9719    1.5838   27.5324 C   0  0  0  0  0  0  0  0  0  0  0  0
   -5.9089    1.4427   27.5372 C   0  0  0  0  0  0  0  0  0  0  0  0
   -5.0921    2.7756   27.9010 C   0  0  0  0  0  0  0  0  0  0  0  0
   -7.8660    5.1448   27.3401 C   0  0  0  0  0  0  0  0  0  0  0  0
   -5.7769    3.9451   27.8096 C   0  0  0  0  0  0  0  0  0  0  0  0
   -9.1421    5.2834   26.6831 C   0  0  0  0  0  0  0  0  0  0  0  0
   -9.7954    4.1694   26.2061 C   0  0  0  0  0  0  0  0  0  0  0  0
   -9.0861    2.7387   26.6224 C   0  0  0  0  0  0  0  0  0  0  0  0
  -11.0130    4.1149   25.6211 C   0  0  1  0  0  0  0  0  0  0  0  0
  -11.1049    4.1337   24.1690 N   0  0  0  0  0  0  0  0  0  0  0  0
  -10.0506    4.4936   23.4585 C   0  0  0  0  0  0  0  0  0  0  0  0
  -12.3237    3.8254   23.5173 C   0  0  0  0  0  0  0  0  0  0  0  0
  -12.0091    3.8231   26.2593 F   0  0  0  0  0  0  0  0  0  0  0  0
   -5.0426    0.2610   27.9262 C   0  0  0  0  0  0  0  0  0  0  0  0
   -5.6051   -0.9204   27.8877 C   0  0  0  0  0  0  0  0  0  0  0  0
   -6.7417   -1.1542   27.4523 C   0  0  0  0  0  0  0  0  0  0  0  0
   -7.6785    0.1646   27.2775 C   0  0  0  0  0  0  0  0  0  0  0  0
  -12.4094    2.5101   23.0908 C   0  0  0  0  0  0  0  0  0  0  0  0
  -11.5179    1.6915   23.0292 C   0  0  0  0  0  0  0  0  0  0  0  0
  -11.6368    0.3075   22.5506 C   0  0  0  0  0  0  0  0  0  0  0  0
  -12.8645    0.0178   22.0424 C   0  0  0  0  0  0  0  0  0  0  0  0
  -13.8738    0.9322   22.0160 C   0  0  0  0  0  0  0  0  0  0  0  0
  -13.7138    2.1968   22.5429 C   0  0  0  0  0  0  0  0  0  0  0  0
  -13.1723    4.6941   23.5587 O   0  0  0  0  0  0  0  0  0  0  0  0
   -3.7246    0.4635   28.3392 O   0  0  0  0  0  0  0  0  0  0  0  0
   -3.1445   -0.4380   29.1334 C   0  0  2  0  0  0  0  0  0  0  0  0
   -2.0129   -1.0155   28.6815 C   0  0  0  0  0  0  0  0  0  0  0  0
   -2.0272   -1.9090   28.1162 N   0  0  0  0  0  0  0  0  0  0  0  0
   -1.1999   -2.2756   27.1237 C   0  0  0  0  0  0  0  0  0  0  0  0
   -2.8142   -3.1069   28.4333 C   0  0  0  0  0  0  0  0  0  0  0  0
   -3.4215   -3.1543   29.4247 C   0  0  0  0  0  0  0  0  0  0  0  0
   -4.3281   -4.2772   29.7855 C   0  0  0  0  0  0  0  0  0  0  0  0
   -5.0998   -4.2789   30.9956 C   0  0  0  0  0  0  0  0  0  0  0  0
   -5.0519   -3.1508   31.8292 C   0  0  0  0  0  0  0  0  0  0  0  0
   -4.2591   -2.0344   31.5652 C   0  0  0  0  0  0  0  0  0  0  0  0
   -3.5496   -2.0257   30.4890 C   0  0  0  0  0  0  0  0  0  0  0  0
   -3.7794   -0.7237   29.9541 C   0  0  0  0  0  0  0  0  0  0  0  0
   -2.7370   -4.1124   27.6665 O   0  0  0  0  0  0  0  0  0  0  0  0
  9 11  1  0
 11 12  1  0
 12 13  1  0
 12 14  1  0
 11 15  1  6
 14 20  1  0
 14 26  2  0
 16 27  1  0
 28 27  1  6
 28 29  1  0
 29 30  1  0
 30 31  1  0
 30 32  1  0
 32 33  1  0
 28 39  1  0
 38 39  1  0
 32 40  2  0
  2 10  1  0
 10  9  2  0
  9  8  1  0
  8  6  2  0
  6  1  1  0
 33 34  2  0
 34 35  1  0
 35 36  2  0
 36 37  1  0
 37 38  2  0
 38 33  1  0
  1  2  1  0
  2  3  2  0
  4  5  2  0
  5  7  1  0
  7  1  2  0
  3  4  1  0
  4 16  1  0
 16 17  2  0
 17 18  1  0
 18 19  2  0
 19  3  1  0
 20 21  2  0
 21 22  1  0
 22 23  2  0
 23 24  1  0
 24 25  2  0
 25 20  1  0
M  END
$$$$
