No_5360-complexes_sdf/6BKW-FPZ/2024-09-17-14-21-01/
     RDKit          3D

 16 18  0  0  0  0  0  0  0  0999 V2000
   -7.9040    3.9820   27.1177 C   0  0  0  0  0  0  0  0  0  0  0  0
   -9.0711    4.3164   27.0630 C   0  0  0  0  0  0  0  0  0  0  0  0
   -9.8698    3.9665   25.9494 C   0  0  0  0  0  0  0  0  0  0  0  0
   -7.4046    2.7946   26.4568 C   0  0  0  0  0  0  0  0  0  0  0  0
   -8.3645    2.1023   25.7152 C   0  0  0  0  0  0  0  0  0  0  0  0
   -9.5483    2.7427   25.4386 C   0  0  0  0  0  0  0  0  0  0  0  0
   -7.1231    4.7103   28.0606 N   0  0  0  0  0  0  0  0  0  0  0  0
  -10.5097    2.3295   24.3820 C   0  0  0  0  0  0  0  0  0  0  0  0
  -10.8675    1.2437   24.1911 C   0  0  0  0  0  0  0  0  0  0  0  0
  -10.8029    3.3463   23.3027 C   0  0  0  0  0  0  0  0  0  0  0  0
  -11.5094    3.0427   22.2006 C   0  0  0  0  0  0  0  0  0  0  0  0
  -11.6931    0.8008   23.0611 C   0  0  0  0  0  0  0  0  0  0  0  0
  -12.0555    1.7883   22.1002 C   0  0  0  0  0  0  0  0  0  0  0  0
   -7.8611    5.7793   28.4614 N   0  0  0  0  0  0  0  0  0  0  0  0
   -9.0554    5.6238   27.7718 C   0  0  0  0  0  0  0  0  0  0  0  0
  -10.3407    4.6423   23.4598 F   0  0  0  0  0  0  0  0  0  0  0  0
  1  7  1  0
  6  8  1  0
  7 14  2  0
  2 15  1  0
 14 15  1  0
 10 16  1  0
  1  2  1  0
  2  3  2  0
  3  6  1  0
  6  5  2  0
  5  4  1  0
  4  1  2  0
  8  9  2  0
  9 12  1  0
 12 13  2  0
 13 11  1  0
 11 10  2  0
 10  8  1  0
M  END
$$$$
