No_5765-complexes_sdf/6BKW-FPZ/2024-09-17-14-21-01/
     RDKit          3D

 21 21  0  0  0  0  0  0  0  0999 V2000
   -7.7129    4.2099   27.0854 C   0  0  0  0  0  0  0  0  0  0  0  0
   -8.9133    4.4736   27.0998 C   0  0  0  0  0  0  0  0  0  0  0  0
   -9.7135    3.9633   26.0300 C   0  0  0  0  0  0  0  0  0  0  0  0
   -6.8420    4.9760   28.0851 C   0  0  0  0  0  0  0  0  0  0  0  0
  -10.9164    3.4776   26.1172 C   0  0  0  0  0  0  0  0  0  0  0  0
  -11.0289    2.6087   26.8958 C   0  0  1  0  0  0  0  0  0  0  0  0
  -11.0524    3.0874   28.3628 C   0  0  0  0  0  0  0  0  0  0  0  0
  -12.4348    1.6857   26.8838 C   0  0  0  0  0  0  0  0  0  0  0  0
  -12.2356    0.4809   26.7413 C   0  0  0  0  0  0  0  0  0  0  0  0
  -11.6930   -0.1312   27.8059 C   0  0  0  0  0  0  0  0  0  0  0  0
  -10.3120   -0.4887   27.6426 C   0  0  0  0  0  0  0  0  0  0  0  0
   -9.7568   -1.6473   28.2427 C   0  0  0  0  0  0  0  0  0  0  0  0
   -7.6015    6.0761   28.7037 C   0  0  0  0  0  0  0  0  0  0  0  0
   -8.8679    6.4362   28.1688 C   0  0  0  0  0  0  0  0  0  0  0  0
   -9.6130    5.4976   27.4137 C   0  0  0  0  0  0  0  0  0  0  0  0
   -9.7698   -2.6752   27.6583 C   0  0  0  0  0  0  0  0  0  0  0  0
  -10.3669   -2.9160   26.6516 C   0  0  0  0  0  0  0  0  0  0  0  0
   -9.9534   -2.8308   25.6072 C   0  0  0  0  0  0  0  0  0  0  0  0
  -10.6650   -2.9052   24.3869 C   0  0  0  0  0  0  0  0  0  0  0  0
  -11.9219   -3.1378   24.4235 C   0  0  0  0  0  0  0  0  0  0  0  0
  -12.5384   -3.4098   25.6492 C   0  0  0  0  0  0  0  0  0  0  0  0
  1  2  1  0
  2  3  1  0
  1  4  1  0
  3  5  1  0
  5  6  1  0
  6  7  1  1
  6  8  1  0
  8  9  1  0
  9 10  1  0
 10 11  1  0
 11 12  1  0
  4 13  1  0
 13 14  1  0
  2 15  1  0
 14 15  1  0
 12 16  1  0
 16 17  2  3
 17 18  1  0
 18 19  2  3
 19 20  1  0
 20 21  2  0
M  END
$$$$
