No_5946-complexes_sdf/6BKW-FPZ/2024-09-17-14-21-01/
     RDKit          3D

 37 43  0  0  0  0  0  0  0  0999 V2000
   -7.9040    3.9820   27.1177 C   0  0  0  0  0  0  0  0  0  0  0  0
   -8.2057    2.8231   26.8733 C   0  0  0  0  0  0  0  0  0  0  0  0
   -7.0130    4.3706   28.1140 C   0  0  0  0  0  0  0  0  0  0  0  0
   -7.4093    1.7370   27.3857 C   0  0  0  0  0  0  0  0  0  0  0  0
   -6.1712    2.1248   28.0064 C   0  0  0  0  0  0  0  0  0  0  0  0
   -5.9514    3.4407   28.3034 C   0  0  0  0  0  0  0  0  0  0  0  0
   -8.9990    4.9315   26.6905 C   0  0  0  0  0  0  0  0  0  0  0  0
   -9.6164    4.7742   25.5386 N   0  0  0  0  0  0  0  0  0  0  0  0
   -5.2162    1.0726   28.3986 C   0  0  0  0  0  0  0  0  0  0  0  0
   -5.5029   -0.2733   28.4509 C   0  0  0  0  0  0  0  0  0  0  0  0
   -4.6321   -1.1334   29.0524 C   0  0  0  0  0  0  0  0  0  0  0  0
   -3.3609   -0.6655   29.4654 C   0  0  0  0  0  0  0  0  0  0  0  0
   -3.0130    0.6598   29.3200 C   0  0  0  0  0  0  0  0  0  0  0  0
   -3.9001    1.5076   28.8703 C   0  0  0  0  0  0  0  0  0  0  0  0
   -8.8040    6.2195   26.9915 O   0  0  0  0  0  0  0  0  0  0  0  0
   -2.4312   -1.7033   30.0821 C   0  0  2  0  0  0  0  0  0  0  0  0
   -2.4062   -1.7682   31.4080 C   0  0  0  0  0  0  0  0  0  0  0  0
   -3.1310   -2.6497   32.0484 C   0  0  0  0  0  0  0  0  0  0  0  0
   -3.1850   -2.6842   33.5395 C   0  0  0  0  0  0  0  0  0  0  0  0
   -3.0715   -1.8034   34.1217 C   0  0  0  0  0  0  0  0  0  0  0  0
   -2.2912   -0.5725   33.6710 C   0  0  0  0  0  0  0  0  0  0  0  0
   -2.0572   -0.5645   32.3032 C   0  0  0  0  0  0  0  0  0  0  0  0
   -0.9530   -1.3056   29.7136 C   0  0  0  0  0  0  0  0  0  0  0  0
   -2.6853   -3.0557   29.4266 C   0  0  1  0  0  0  0  0  0  0  0  0
   -1.9781   -3.6695   28.7133 C   0  0  0  0  0  0  0  0  0  0  0  0
   -0.2452   -1.9158   28.6809 C   0  0  0  0  0  0  0  0  0  0  0  0
   -0.6768   -3.1669   28.2894 C   0  0  0  0  0  0  0  0  0  0  0  0
   -3.7365   -3.7139   30.2075 C   0  0  0  0  0  0  0  0  0  0  0  0
   -3.6654   -3.6975   31.4057 C   0  0  0  0  0  0  0  0  0  0  0  0
  -10.2055    3.5646   25.1508 C   0  0  0  0  0  0  0  0  0  0  0  0
   -9.2557    2.3511   25.8970 C   0  0  1  0  0  0  0  0  0  0  0  0
   -9.5474    1.0722   25.4345 C   0  0  0  0  0  0  0  0  0  0  0  0
   -8.7270    0.5242   24.5244 C   0  0  0  0  0  0  0  0  0  0  0  0
   -8.7217   -0.8036   24.1978 C   0  0  0  0  0  0  0  0  0  0  0  0
  -10.5523    0.3867   25.9828 C   0  0  0  0  0  0  0  0  0  0  0  0
  -10.6935   -1.0036   25.6700 C   0  0  0  0  0  0  0  0  0  0  0  0
   -9.7973   -1.5454   24.7421 C   0  0  0  0  0  0  0  0  0  0  0  0
  1  7  1  0
  7  8  1  0
  5  9  1  0
  7 15  2  0
 16 12  1  1
 16 17  1  0
 16 23  1  0
 16 24  1  0
 25 27  1  0
 26 27  1  0
 24 28  1  1
 18 29  1  0
  2 31  1  0
 30 31  1  0
 31 32  1  6
 23 26  1  0
 25 24  1  0
 29 28  1  0
 30  8  1  0
  1  2  2  0
  2  4  1  0
  4  5  2  0
  5  6  1  0
  6  3  2  0
  3  1  1  0
  9 10  2  0
 10 11  1  0
 11 12  2  0
 12 13  1  0
 13 14  2  0
 14  9  1  0
 17 22  1  0
 22 21  2  0
 21 20  1  0
 20 19  2  0
 19 18  1  0
 18 17  2  0
 32 33  2  0
 33 34  1  0
 34 37  2  0
 37 36  1  0
 36 35  2  0
 35 32  1  0
M  END
$$$$
