No_562-complexes_sdf/6BKW-FPZ/2024-09-17-14-21-01/
     RDKit          3D

 30 33  0  0  0  0  0  0  0  0999 V2000
   -7.9040    3.9820   27.1177 C   0  0  0  0  0  0  0  0  0  0  0  0
   -7.8663    4.8694   27.9238 C   0  0  0  0  0  0  0  0  0  0  0  0
   -9.0491    3.8523   26.2542 C   0  0  0  0  0  0  0  0  0  0  0  0
   -8.7661    5.9491   27.9690 C   0  0  0  0  0  0  0  0  0  0  0  0
   -9.9279    4.8544   26.1938 C   0  0  0  0  0  0  0  0  0  0  0  0
   -9.8044    5.9413   27.0782 C   0  0  0  0  0  0  0  0  0  0  0  0
   -7.0309    2.9461   27.1571 F   0  0  0  0  0  0  0  0  0  0  0  0
   -9.0873    2.7275   25.2629 C   0  0  0  0  0  0  0  0  0  0  0  0
   -8.3062    1.8999   25.3566 F   0  0  0  0  0  0  0  0  0  0  0  0
  -10.0205    2.8392   24.2191 C   0  0  0  0  0  0  0  0  0  0  0  0
  -10.8646    3.8112   23.9932 C   0  0  0  0  0  0  0  0  0  0  0  0
  -10.8754    4.9651   25.0836 C   0  0  0  0  0  0  0  0  0  0  0  0
  -11.8416    3.9099   23.0315 C   0  0  0  0  0  0  0  0  0  0  0  0
  -13.0272    4.0398   23.0536 C   0  0  0  0  0  0  0  0  0  0  0  0
  -13.6533    4.0874   24.4430 C   0  0  0  0  0  0  0  0  0  0  0  0
  -13.0533    3.6871   25.5248 C   0  0  0  0  0  0  0  0  0  0  0  0
  -13.9820    3.5061   26.7453 C   0  0  0  0  0  0  0  0  0  0  0  0
  -15.0803    4.2760   26.8023 C   0  0  0  0  0  0  0  0  0  0  0  0
  -15.0814    4.5705   24.5464 C   0  0  0  0  0  0  0  0  0  0  0  0
  -15.7278    4.6628   25.6789 C   0  0  0  0  0  0  0  0  0  0  0  0
  -11.1411    3.8680   21.6789 C   0  0  0  0  0  0  0  0  0  0  0  0
   -9.9345    4.3239   21.5247 C   0  0  0  0  0  0  0  0  0  0  0  0
  -11.8730    3.2298   20.6658 C   0  0  0  0  0  0  0  0  0  0  0  0
  -13.2101    2.8980   27.8272 C   0  0  0  0  0  0  0  0  0  0  0  0
  -13.7588    1.8079   28.3560 C   0  0  0  0  0  0  0  0  0  0  0  0
  -14.8702    1.2731   28.0361 C   0  0  0  0  0  0  0  0  0  0  0  0
  -15.3476    0.0333   28.6612 C   0  0  0  0  0  0  0  0  0  0  0  0
  -14.5581   -0.4963   29.7106 C   0  0  0  0  0  0  0  0  0  0  0  0
  -13.3652    0.0210   30.0917 C   0  0  0  0  0  0  0  0  0  0  0  0
  -12.8822    1.1675   29.4825 C   0  0  0  0  0  0  0  0  0  0  0  0
  1  7  1  0
  8  9  1  0
 11 13  1  0
 13 14  2  3
 14 15  1  0
 13 21  1  0
 21 22  1  0
 21 23  1  0
 17 24  1  0
 24 25  1  0
  5 12  2  0
 12 11  1  0
 11 10  2  0
 10  8  1  0
  8  3  2  0
 25 26  2  0
 26 27  1  0
 27 28  2  0
 28 29  1  0
 29 30  2  0
 30 25  1  0
  1  2  2  0
  2  4  1  0
  4  6  2  0
  6  5  1  0
  5  3  1  0
  3  1  1  0
 15 16  2  0
 16 17  1  0
 17 18  2  0
 18 20  1  0
 20 19  2  0
 19 15  1  0
M  END
$$$$
