No_54-complexes_sdf/6BKW-FPZ/2024-09-17-14-21-01/
     RDKit          3D

 12 12  0  0  0  0  0  0  0  0999 V2000
   -7.2496    3.8871   27.4508 C   0  0  0  0  0  0  0  0  0  0  0  0
   -8.5096    4.0291   27.2770 C   0  0  0  0  0  0  0  0  0  0  0  0
   -9.3451    2.8786   26.9046 C   0  0  0  0  0  0  0  0  0  0  0  0
   -8.7138    1.7135   26.7541 C   0  0  0  0  0  0  0  0  0  0  0  0
   -6.6024    2.6286   27.4581 C   0  0  0  0  0  0  0  0  0  0  0  0
   -7.3557    1.5598   27.1381 C   0  0  0  0  0  0  0  0  0  0  0  0
   -9.1549    5.3689   27.3374 C   0  0  1  0  0  0  0  0  0  0  0  0
   -8.7200    6.3287   26.6730 C   0  0  0  0  0  0  0  0  0  0  0  0
   -6.5813    0.0316   27.0370 Cl  0  0  0  0  0  0  0  0  0  0  0  0
   -8.3288    7.6236   27.2965 C   0  0  0  0  0  0  0  0  0  0  0  0
  -10.7331    5.2359   27.1846 C   0  0  0  0  0  0  0  0  0  0  0  0
   -5.2848    2.7548   27.6980 F   0  0  0  0  0  0  0  0  0  0  0  0
  2  7  1  0
  7  8  1  0
  6  9  1  0
  8 10  2  0
  7 11  1  6
  5 12  1  0
  1  2  2  0
  2  3  1  0
  3  4  2  0
  4  6  1  0
  6  5  2  0
  5  1  1  0
M  END
$$$$
