No_5045-complexes_sdf/6BKW-FPZ/2024-09-17-14-21-01/
     RDKit          3D

 31 34  0  0  0  0  0  0  0  0999 V2000
   -7.9040    3.9820   27.1177 C   0  0  0  0  0  0  0  0  0  0  0  0
   -9.0711    4.3164   27.0630 C   0  0  0  0  0  0  0  0  0  0  0  0
   -9.5294    5.4517   27.7215 C   0  0  0  0  0  0  0  0  0  0  0  0
   -6.9328    4.7309   27.8881 C   0  0  0  0  0  0  0  0  0  0  0  0
   -7.3666    5.8455   28.5488 C   0  0  0  0  0  0  0  0  0  0  0  0
   -8.6669    6.2428   28.4199 C   0  0  0  0  0  0  0  0  0  0  0  0
  -10.0479    3.5083   26.2510 C   0  0  0  0  0  0  0  0  0  0  0  0
   -9.7487    3.3855   24.9113 C   0  0  0  0  0  0  0  0  0  0  0  0
  -10.5142    2.6814   23.9902 C   0  0  0  0  0  0  0  0  0  0  0  0
  -11.6898    2.1313   24.4168 C   0  0  0  0  0  0  0  0  0  0  0  0
  -11.2523    3.0121   26.5975 C   0  0  0  0  0  0  0  0  0  0  0  0
  -12.0785    2.2965   25.7808 C   0  0  0  0  0  0  0  0  0  0  0  0
  -10.0567    2.5731   22.6004 C   0  0  0  0  0  0  0  0  0  0  0  0
  -10.9278    2.4824   21.5845 C   0  0  0  0  0  0  0  0  0  0  0  0
  -11.7952    3.1706   21.4319 C   0  0  0  0  0  0  0  0  0  0  0  0
  -12.0000    4.2903   22.3804 C   0  0  0  0  0  0  0  0  0  0  0  0
  -10.9857    4.9705   22.9019 C   0  0  0  0  0  0  0  0  0  0  0  0
  -13.3340    1.7417   26.2145 C   0  0  0  0  0  0  0  0  0  0  0  0
  -13.3505    0.5728   26.5882 C   0  0  0  0  0  0  0  0  0  0  0  0
  -12.1476   -0.2061   26.7070 C   0  0  0  0  0  0  0  0  0  0  0  0
  -12.2355   -1.6168   27.1814 C   0  0  0  0  0  0  0  0  0  0  0  0
  -10.9828   -2.2072   27.4168 C   0  0  0  0  0  0  0  0  0  0  0  0
   -9.7508   -1.5598   27.2439 C   0  0  0  0  0  0  0  0  0  0  0  0
   -9.7369   -0.2335   26.8975 C   0  0  0  0  0  0  0  0  0  0  0  0
  -10.8233    0.3948   26.7310 C   0  0  0  0  0  0  0  0  0  0  0  0
  -14.4632    2.6295   26.0676 C   0  0  0  0  0  0  0  0  0  0  0  0
  -15.6261    2.1774   26.0478 C   0  0  0  0  0  0  0  0  0  0  0  0
  -16.7618    2.9701   25.8937 C   0  0  0  0  0  0  0  0  0  0  0  0
  -16.5560    4.3737   25.7187 C   0  0  0  0  0  0  0  0  0  0  0  0
  -15.2587    4.9125   25.7009 C   0  0  0  0  0  0  0  0  0  0  0  0
  -14.1997    4.0867   25.8996 C   0  0  0  0  0  0  0  0  0  0  0  0
  2  7  1  0
  9 13  1  0
 13 14  2  3
 14 15  1  0
 15 16  2  3
 16 17  1  0
 12 18  1  0
 18 19  2  3
 19 20  1  0
 18 26  1  0
  7  8  2  0
  8  9  1  0
  9 10  2  0
 10 12  1  0
 12 11  2  0
 11  7  1  0
  1  2  2  0
  2  3  1  0
  3  6  2  0
  6  5  1  0
  5  4  2  0
  4  1  1  0
 20 21  2  0
 21 22  1  0
 22 23  2  0
 23 24  1  0
 24 25  2  0
 25 20  1  0
 26 27  2  0
 27 28  1  0
 28 29  2  0
 29 30  1  0
 30 31  2  0
 31 26  1  0
M  END
$$$$
