No_5433-complexes_sdf/6BKW-FPZ/2024-09-17-14-21-01/
     RDKit          3D

 10 10  0  0  0  0  0  0  0  0999 V2000
   -7.9040    3.9820   27.1177 C   0  0  0  0  0  0  0  0  0  0  0  0
   -9.0711    4.3164   27.0630 C   0  0  1  0  0  0  0  0  0  0  0  0
   -9.5294    5.4517   27.7215 C   0  0  0  0  0  0  0  0  0  0  0  0
   -9.9845    3.5634   26.2189 C   0  0  0  0  0  0  0  0  0  0  0  0
  -10.7684    4.0785   25.5182 C   0  0  0  0  0  0  0  0  0  0  0  0
   -7.4821    3.3199   28.3614 C   0  0  0  0  0  0  0  0  0  0  0  0
  -10.8319    3.8886   24.2751 C   0  0  0  0  0  0  0  0  0  0  0  0
  -10.2422    2.7872   23.6793 C   0  0  0  0  0  0  0  0  0  0  0  0
   -9.4376    1.9866   24.5320 C   0  0  0  0  0  0  0  0  0  0  0  0
   -8.7890    2.8836   25.5344 C   0  0  0  0  0  0  0  0  0  0  0  0
  1  2  1  0
  2  3  1  6
  2  4  1  0
  1  6  1  0
  4  5  2  0
  5  7  1  0
  7  8  2  0
  8  9  1  0
  9 10  2  0
 10  4  1  0
M  END
$$$$
