No_5696-complexes_sdf/6BKW-FPZ/2024-09-17-14-21-01/
     RDKit          3D

 14 15  0  0  0  0  0  0  0  0999 V2000
   -7.7129    4.2099   27.0854 C   0  0  0  0  0  0  0  0  0  0  0  0
   -8.2112    3.0637   26.9225 C   0  0  2  0  0  0  0  0  0  0  0  0
   -8.4224    5.2106   27.8516 C   0  0  0  0  0  0  0  0  0  0  0  0
   -7.4917    1.9381   26.3986 C   0  0  0  0  0  0  0  0  0  0  0  0
   -7.9130    6.5729   27.8420 C   0  0  0  0  0  0  0  0  0  0  0  0
   -9.6536    2.7665   27.1018 C   0  0  0  0  0  0  0  0  0  0  0  0
   -9.9241    1.5839   27.7690 C   0  0  0  0  0  0  0  0  0  0  0  0
   -9.3388    0.4142   27.2451 C   0  0  0  0  0  0  0  0  0  0  0  0
   -9.7389   -0.8741   27.6767 C   0  0  0  0  0  0  0  0  0  0  0  0
   -7.9735    0.6680   26.8850 C   0  0  0  0  0  0  0  0  0  0  0  0
   -8.9827   -1.7671   27.9855 C   0  0  0  0  0  0  0  0  0  0  0  0
   -7.1029   -0.4705   26.6694 C   0  0  0  0  0  0  0  0  0  0  0  0
   -7.5687   -1.7197   27.3214 C   0  0  0  0  0  0  0  0  0  0  0  0
   -6.8624   -0.7492   25.2311 C   0  0  0  0  0  0  0  0  0  0  0  0
  1  2  1  0
  1  3  2  3
  2  4  1  6
  3  5  1  0
  2  6  1  0
  6  7  1  0
  7  8  1  0
  4 10  1  0
 12 14  1  0
  8  9  2  0
  9 11  1  0
 11 13  2  0
 13 12  1  0
 12 10  2  0
 10  8  1  0
M  END
$$$$
