No_5961-complexes_sdf/6BKW-FPZ/2024-09-17-14-21-01/
     RDKit          3D

 40 43  0  0  0  0  0  0  0  0999 V2000
   -7.7129    4.2099   27.0854 C   0  0  0  0  0  0  0  0  0  0  0  0
   -8.2112    3.0637   26.9225 C   0  0  0  0  0  0  0  0  0  0  0  0
   -8.4224    5.2106   27.8516 C   0  0  0  0  0  0  0  0  0  0  0  0
   -9.5628    2.7160   27.4089 C   0  0  0  0  0  0  0  0  0  0  0  0
  -10.2428    3.7496   28.1155 C   0  0  0  0  0  0  0  0  0  0  0  0
   -9.6677    4.9738   28.3232 C   0  0  0  0  0  0  0  0  0  0  0  0
  -11.5148    3.4689   28.6037 N   0  0  0  0  0  0  0  0  0  0  0  0
  -11.9668    2.2201   28.8154 C   0  0  0  0  0  0  0  0  0  0  0  0
  -13.2554    2.1225   29.4350 C   0  0  0  0  0  0  0  0  0  0  0  0
  -13.6950    3.4074   29.6807 C   0  0  2  0  0  0  0  0  0  0  0  0
  -12.4760    4.2075   29.4030 C   0  0  0  0  0  0  0  0  0  0  0  0
   -7.8214    6.3946   27.9865 F   0  0  0  0  0  0  0  0  0  0  0  0
  -14.7937    3.9052   30.3585 C   0  0  0  0  0  0  0  0  0  0  0  0
  -15.5188    4.6958   29.7914 O   0  0  0  0  0  0  0  0  0  0  0  0
  -15.0717    3.4688   31.5484 O   0  0  0  0  0  0  0  0  0  0  0  0
   -7.5754    2.0461   26.3275 F   0  0  0  0  0  0  0  0  0  0  0  0
  -15.5393    3.9150   32.3849 C   0  0  0  0  0  0  0  0  0  0  0  0
  -15.7470    3.2538   33.6501 C   0  0  0  0  0  0  0  0  0  0  0  0
  -16.4220    3.7266   34.4541 O   0  0  0  0  0  0  0  0  0  0  0  0
  -15.1940    2.1233   33.7773 O   0  0  0  0  0  0  0  0  0  0  0  0
  -13.9291    0.9148   29.6587 C   0  0  0  0  0  0  0  0  0  0  0  0
  -13.3950   -0.0661   29.7555 O   0  0  0  0  0  0  0  0  0  0  0  0
  -15.0911    1.0517   30.2729 O   0  0  0  0  0  0  0  0  0  0  0  0
  -16.0455   -0.0023   29.9989 C   0  0  0  0  0  0  0  0  0  0  0  0
  -15.9093   -0.9858   29.8149 C   0  0  0  0  0  0  0  0  0  0  0  0
  -17.3826    0.5333   30.4815 C   0  0  0  0  0  0  0  0  0  0  0  0
  -16.9608   -1.9786   29.6518 C   0  0  0  0  0  0  0  0  0  0  0  0
  -18.4687   -0.2832   30.4063 C   0  0  0  0  0  0  0  0  0  0  0  0
  -18.2559   -1.5682   30.0036 C   0  0  0  0  0  0  0  0  0  0  0  0
  -19.8268    0.1647   30.7616 C   0  0  0  0  0  0  0  0  0  0  0  0
  -20.8055   -0.3345   30.6129 O   0  0  0  0  0  0  0  0  0  0  0  0
  -19.8503    1.5562   30.9183 F   0  0  0  0  0  0  0  0  0  0  0  0
  -15.8643    0.9514   34.2392 C   0  0  0  0  0  0  0  0  0  0  0  0
  -15.1459   -0.2387   33.8918 C   0  0  0  0  0  0  0  0  0  0  0  0
  -15.9735   -1.4536   33.9797 C   0  0  0  0  0  0  0  0  0  0  0  0
  -15.4137   -2.6846   33.7606 C   0  0  0  0  0  0  0  0  0  0  0  0
  -14.0028   -2.7415   33.4566 C   0  0  0  0  0  0  0  0  0  0  0  0
  -13.2224   -1.5721   33.4092 C   0  0  0  0  0  0  0  0  0  0  0  0
  -13.8224   -0.3740   33.6399 C   0  0  0  0  0  0  0  0  0  0  0  0
  -13.4210   -4.0763   33.2025 C   0  0  0  0  0  0  0  0  0  0  0  0
  5  7  1  0
  7  8  1  0
  8  9  2  0
  9 10  1  0
  7 11  1  0
 10 11  1  0
  3 12  1  0
 10 13  1  1
 13 14  2  0
 13 15  1  0
  2 16  1  0
 15 17  1  0
 17 18  1  0
 18 19  2  0
 18 20  1  0
  9 21  1  0
 21 22  2  0
 21 23  1  0
 23 24  1  0
 28 30  1  0
 30 31  2  0
 30 32  1  0
 20 33  1  0
 37 40  1  0
 33 34  1  0
  1  2  2  0
  2  4  1  0
  4  5  2  0
  5  6  1  0
  6  3  2  0
  3  1  1  0
 34 35  2  0
 35 36  1  0
 36 37  2  0
 37 38  1  0
 38 39  2  0
 39 34  1  0
 24 25  2  0
 25 27  1  0
 27 29  2  0
 29 28  1  0
 28 26  2  0
 26 24  1  0
M  END
$$$$
