No_5917-complexes_sdf/6BKW-FPZ/2024-09-17-14-21-01/
     RDKit          3D

 15 16  0  0  0  0  0  0  0  0999 V2000
   -7.9040    3.9820   27.1177 C   0  0  0  0  0  0  0  0  0  0  0  0
   -7.8663    4.8694   27.9238 C   0  0  0  0  0  0  0  0  0  0  0  0
   -9.0491    3.8523   26.2542 C   0  0  0  0  0  0  0  0  0  0  0  0
   -8.7661    5.9491   27.9690 C   0  0  0  0  0  0  0  0  0  0  0  0
   -9.9295    4.8502   26.2323 C   0  0  0  0  0  0  0  0  0  0  0  0
   -9.8077    5.9288   27.0933 C   0  0  0  0  0  0  0  0  0  0  0  0
   -9.0726    2.7074   25.3087 C   0  0  0  0  0  0  0  0  0  0  0  0
  -10.0632    2.7302   24.3178 C   0  0  0  0  0  0  0  0  0  0  0  0
  -10.4202    1.5923   23.6887 C   0  0  0  0  0  0  0  0  0  0  0  0
   -9.5463    0.4260   23.8643 C   0  0  0  0  0  0  0  0  0  0  0  0
   -8.4711    1.4506   25.5842 C   0  0  0  0  0  0  0  0  0  0  0  0
   -8.6702    0.3616   24.8743 C   0  0  0  0  0  0  0  0  0  0  0  0
   -9.8724   -0.7801   23.0106 C   0  0  0  0  0  0  0  0  0  0  0  0
   -9.0200   -1.6086   22.7638 C   0  0  0  0  0  0  0  0  0  0  0  0
   -7.6751   -1.4466   23.4112 C   0  0  0  0  0  0  0  0  0  0  0  0
  3  7  1  0
 10 13  1  0
 13 14  2  3
 14 15  1  0
  7  8  2  0
  8  9  1  0
  9 10  2  0
 10 12  1  0
 12 11  2  0
 11  7  1  0
  1  2  2  0
  2  4  1  0
  4  6  2  0
  6  5  1  0
  5  3  2  0
  3  1  1  0
M  END
$$$$
