No_5599-complexes_sdf/6BKW-FPZ/2024-09-17-14-21-01/
     RDKit          3D

 12 13  0  0  0  0  0  0  0  0999 V2000
   -7.7129    4.2099   27.0854 C   0  0  0  0  0  0  0  0  0  0  0  0
   -7.7814    5.1722   27.8972 C   0  0  0  0  0  0  0  0  0  0  0  0
   -8.8776    3.8408   26.3416 C   0  0  0  0  0  0  0  0  0  0  0  0
   -8.9136    2.6330   25.5655 C   0  0  0  0  0  0  0  0  0  0  0  0
   -8.8380    6.0976   27.6639 C   0  0  0  0  0  0  0  0  0  0  0  0
   -9.9036    4.7449   26.2606 C   0  0  0  0  0  0  0  0  0  0  0  0
   -9.8428    5.9017   26.9322 C   0  0  0  0  0  0  0  0  0  0  0  0
   -9.8237    2.3476   24.6084 C   0  0  0  0  0  0  0  0  0  0  0  0
   -9.9090    1.1289   24.0358 C   0  0  0  0  0  0  0  0  0  0  0  0
   -8.8922    0.1556   24.3140 C   0  0  0  0  0  0  0  0  0  0  0  0
   -8.1103    1.5232   25.8804 C   0  0  0  0  0  0  0  0  0  0  0  0
   -8.0444    0.3617   25.3225 C   0  0  0  0  0  0  0  0  0  0  0  0
  3  4  1  0
  4  8  2  0
  8  9  1  0
  9 10  2  0
 10 12  1  0
 12 11  2  0
 11  4  1  0
  1  2  2  0
  2  5  1  0
  5  7  2  0
  7  6  1  0
  6  3  2  0
  3  1  1  0
M  END
$$$$
