No_6406-complexes_sdf/6BKW-FPZ/2024-09-17-14-21-01/
     RDKit          3D

 17 17  0  0  0  0  0  0  0  0999 V2000
   -7.2496    3.8871   27.4508 C   0  0  0  0  0  0  0  0  0  0  0  0
   -8.5096    4.0291   27.2770 C   0  0  0  0  0  0  0  0  0  0  0  0
   -9.3451    2.8786   26.9046 C   0  0  0  0  0  0  0  0  0  0  0  0
   -6.6065    2.5680   27.5073 C   0  0  0  0  0  0  0  0  0  0  0  0
   -7.3970    1.4834   27.2271 C   0  0  0  0  0  0  0  0  0  0  0  0
   -6.8114    0.1924   27.2947 C   0  0  0  0  0  0  0  0  0  0  0  0
   -8.7355    1.6575   26.9788 C   0  0  0  0  0  0  0  0  0  0  0  0
   -9.1211    5.3943   27.2180 C   0  0  0  0  0  0  0  0  0  0  0  0
   -8.3521    6.4379   27.0739 N   0  0  0  0  0  0  0  0  0  0  0  0
   -7.4063   -0.8995   27.2559 C   0  0  0  0  0  0  0  0  0  0  0  0
   -8.6771    7.7122   26.8110 C   0  0  0  0  0  0  0  0  0  0  0  0
   -5.3076    0.1792   27.4008 C   0  0  0  0  0  0  0  0  0  0  0  0
   -4.8359   -0.7593   27.1019 F   0  0  0  0  0  0  0  0  0  0  0  0
   -4.6975    1.2651   26.8928 F   0  0  0  0  0  0  0  0  0  0  0  0
   -4.9836    0.3458   28.8204 F   0  0  0  0  0  0  0  0  0  0  0  0
  -10.2506    5.6134   27.7683 O   0  0  0  0  0  0  0  0  0  0  0  0
   -9.0454   -0.9407   26.9653 Br  0  0  0  0  0  0  0  0  0  0  0  0
  5  6  1  0
  2  8  1  0
  8  9  1  0
  6 10  2  3
  9 11  1  0
  6 12  1  0
 12 13  1  0
 12 14  1  0
 12 15  1  0
  8 16  2  0
 10 17  1  0
  1  2  2  0
  2  3  1  0
  3  7  2  0
  7  5  1  0
  5  4  2  0
  4  1  1  0
M  END
$$$$
