No_6066-complexes_sdf/6BKW-FPZ/2024-09-17-14-21-01/
     RDKit          3D

 35 39  0  0  0  0  0  0  0  0999 V2000
   -7.7129    4.2099   27.0854 C   0  0  0  0  0  0  0  0  0  0  0  0
   -8.9133    4.4736   27.0998 C   0  0  0  0  0  0  0  0  0  0  0  0
   -9.7135    3.9633   26.0300 C   0  0  0  0  0  0  0  0  0  0  0  0
   -6.8655    4.8824   28.1822 C   0  0  0  0  0  0  0  0  0  0  0  0
   -9.2221    2.8459   25.3619 C   0  0  0  0  0  0  0  0  0  0  0  0
   -8.0164    2.2957   25.7889 C   0  0  0  0  0  0  0  0  0  0  0  0
   -7.3052    2.9474   26.8072 C   0  0  0  0  0  0  0  0  0  0  0  0
   -9.9490    2.2365   24.4880 F   0  0  0  0  0  0  0  0  0  0  0  0
   -9.5332    5.7322   27.6183 C   0  0  0  0  0  0  0  0  0  0  0  0
   -6.0783    2.2643   27.3313 C   0  0  0  0  0  0  0  0  0  0  0  0
   -5.0637    2.9408   27.6121 N   0  0  0  0  0  0  0  0  0  0  0  0
   -6.1263    0.8552   27.6775 C   0  0  0  0  0  0  0  0  0  0  0  0
   -5.0168    0.3446   28.3728 C   0  0  0  0  0  0  0  0  0  0  0  0
   -4.9740   -1.0104   28.7439 C   0  0  0  0  0  0  0  0  0  0  0  0
   -6.0937   -1.7630   28.3421 C   0  0  0  0  0  0  0  0  0  0  0  0
   -7.0751   -0.0452   27.4193 C   0  0  0  0  0  0  0  0  0  0  0  0
   -7.1428   -1.2912   27.7513 C   0  0  0  0  0  0  0  0  0  0  0  0
   -8.2997   -2.1291   27.4028 C   0  0  0  0  0  0  0  0  0  0  0  0
   -9.3101   -2.1372   27.6411 C   0  0  0  0  0  0  0  0  0  0  0  0
   -9.8580   -0.9990   28.6105 C   0  0  0  0  0  0  0  0  0  0  0  0
  -11.2553   -0.8479   28.9414 C   0  0  0  0  0  0  0  0  0  0  0  0
  -12.0922   -1.8379   28.4500 C   0  0  0  0  0  0  0  0  0  0  0  0
  -11.7235   -2.8431   27.6062 C   0  0  0  0  0  0  0  0  0  0  0  0
  -10.4009   -2.9648   27.2566 C   0  0  0  0  0  0  0  0  0  0  0  0
   -7.8304   -3.2446   26.4520 C   0  0  0  0  0  0  0  0  0  0  0  0
   -8.4885   -3.6497   25.5179 N   0  0  0  0  0  0  0  0  0  0  0  0
   -9.9312   -3.8093   26.0575 C   0  0  0  0  0  0  0  0  0  0  0  0
   -8.2715   -4.1136   24.2940 C   0  0  0  0  0  0  0  0  0  0  0  0
  -10.7678   -4.3350   25.3410 O   0  0  0  0  0  0  0  0  0  0  0  0
  -13.5306   -1.7332   28.8883 C   0  0  0  0  0  0  0  0  0  0  0  0
  -14.3891   -2.0979   28.3412 C   0  0  0  0  0  0  0  0  0  0  0  0
  -14.2694   -2.7036   27.0169 C   0  0  0  0  0  0  0  0  0  0  0  0
  -12.7903   -3.3258   26.7663 C   0  0  0  0  0  0  0  0  0  0  0  0
   -8.2952   -3.6606   23.3242 C   0  0  0  0  0  0  0  0  0  0  0  0
   -7.8842   -4.1504   22.0515 C   0  0  0  0  0  0  0  0  0  0  0  0
  1  4  1  0
  5  8  1  0
  2  9  1  0
  7 10  1  0
 10 11  2  0
 10 12  1  0
 17 18  1  0
 18 25  1  0
 25 26  1  0
 24 27  1  0
 26 27  1  0
 26 28  1  0
 27 29  2  0
 28 34  2  3
 34 35  1  0
 18 19  1  0
  1  2  2  0
  2  3  1  0
  3  5  2  0
  5  6  1  0
  6  7  2  0
  7  1  1  0
 19 20  2  0
 20 21  1  0
 21 22  2  0
 23 24  2  0
 24 19  1  0
 12 13  2  0
 13 14  1  0
 14 15  2  0
 15 17  1  0
 17 16  2  0
 16 12  1  0
 22 23  1  0
 23 33  1  0
 33 32  2  0
 32 31  1  0
 31 30  2  0
 30 22  1  0
M  END
$$$$
