No_6290-complexes_sdf/6BKW-FPZ/2024-09-17-14-21-01/
     RDKit          3D

 12 13  0  0  0  0  0  0  0  0999 V2000
   -7.2496    3.8871   27.4508 C   0  0  0  0  0  0  0  0  0  0  0  0
   -7.6161    2.7143   27.1523 C   0  0  0  0  0  0  0  0  0  0  0  0
   -6.9719    1.5838   27.5324 C   0  0  0  0  0  0  0  0  0  0  0  0
   -7.4590    0.2827   27.2615 C   0  0  0  0  0  0  0  0  0  0  0  0
   -8.0933    5.0566   27.1921 C   0  0  0  0  0  0  0  0  0  0  0  0
   -7.8237    6.3896   27.7110 C   0  0  0  0  0  0  0  0  0  0  0  0
   -8.8137    2.4601   26.4520 C   0  0  0  0  0  0  0  0  0  0  0  0
   -9.1684    1.5047   26.2679 C   0  0  0  0  0  0  0  0  0  0  0  0
   -8.6432    0.2381   26.5821 C   0  0  0  0  0  0  0  0  0  0  0  0
   -9.2700    4.8875   26.4965 C   0  0  0  0  0  0  0  0  0  0  0  0
   -9.6255    3.6395   26.0324 C   0  0  0  0  0  0  0  0  0  0  0  0
   -8.6337    7.3890   27.2310 N   0  0  0  0  0  0  0  0  0  0  0  0
  2  3  1  0
  3  4  3  0
  7  8  1  0
  4  9  1  0
  8  9  1  0
  6 12  1  0
  6  5  1  0
  1  2  2  0
  2  7  1  0
  7 11  2  0
 11 10  1  0
 10  5  2  0
  5  1  1  0
M  END
$$$$
