No_6460-complexes_sdf/6BKW-FPZ/2024-09-17-14-21-01/
     RDKit          3D

 18 20  0  0  0  0  0  0  0  0999 V2000
   -7.9040    3.9820   27.1177 C   0  0  0  0  0  0  0  0  0  0  0  0
   -8.2057    2.8231   26.8733 C   0  0  0  0  0  0  0  0  0  0  0  0
   -7.4766    1.7477   27.4593 C   0  0  1  0  0  0  0  0  0  0  0  0
   -8.7468    5.1251   26.6967 C   0  0  0  0  0  0  0  0  0  0  0  0
   -9.7234    4.8589   25.8202 C   0  0  0  0  0  0  0  0  0  0  0  0
   -9.9711    3.5858   25.4266 C   0  0  0  0  0  0  0  0  0  0  0  0
   -9.2266    2.4957   25.9600 C   0  0  0  0  0  0  0  0  0  0  0  0
   -7.8305    0.3697   27.3235 C   0  0  0  0  0  0  0  0  0  0  0  0
   -8.9837    0.1833   26.4540 C   0  0  0  0  0  0  0  0  0  0  0  0
   -9.6460    1.1855   25.7538 C   0  0  0  0  0  0  0  0  0  0  0  0
   -8.3852    6.5353   27.0806 C   0  0  0  0  0  0  0  0  0  0  0  0
   -8.0041    7.6180   27.0870 N   0  0  0  0  0  0  0  0  0  0  0  0
   -7.1521   -0.6626   27.9950 C   0  0  0  0  0  0  0  0  0  0  0  0
   -5.8358   -0.4968   28.4008 C   0  0  0  0  0  0  0  0  0  0  0  0
   -5.0580    0.6929   28.0539 C   0  0  0  0  0  0  0  0  0  0  0  0
   -5.9683    1.8864   27.7633 C   0  0  0  0  0  0  0  0  0  0  0  0
   -3.9181    0.9924   28.5204 O   0  0  0  0  0  0  0  0  0  0  0  0
  -10.5701    0.8228   24.9731 F   0  0  0  0  0  0  0  0  0  0  0  0
  2  3  1  0
  8  9  1  0
  7 10  1  0
  9 10  1  0
  4 11  1  0
 11 12  3  0
  8 13  1  0
 14 15  1  0
  3 16  1  6
 15 16  1  0
 15 17  2  0
 10 18  1  0
 14 13  1  0
  8  3  1  0
  1  2  2  0
  2  7  1  0
  7  6  2  0
  6  5  1  0
  5  4  2  0
  4  1  1  0
M  END
$$$$
