No_6018-complexes_sdf/6BKW-FPZ/2024-09-17-14-21-01/
     RDKit          3D

 34 37  0  0  0  0  0  0  0  0999 V2000
   -7.9040    3.9820   27.1177 C   0  0  0  0  0  0  0  0  0  0  0  0
   -8.2057    2.8231   26.8733 C   0  0  0  0  0  0  0  0  0  0  0  0
   -8.7695    5.0740   26.7916 C   0  0  0  0  0  0  0  0  0  0  0  0
   -8.4337    6.4678   27.0913 C   0  0  0  0  0  0  0  0  0  0  0  0
   -9.3742    2.4311   26.2346 C   0  0  0  0  0  0  0  0  0  0  0  0
   -9.6450    1.0516   25.9787 C   0  0  0  0  0  0  0  0  0  0  0  0
   -9.9250    4.7649   26.0943 C   0  0  0  0  0  0  0  0  0  0  0  0
  -10.1643    3.4545   25.8005 C   0  0  0  0  0  0  0  0  0  0  0  0
   -8.5876    6.7867   28.2492 F   0  0  0  0  0  0  0  0  0  0  0  0
   -9.1741    7.3496   26.3032 F   0  0  0  0  0  0  0  0  0  0  0  0
   -7.0919    6.7305   26.8779 F   0  0  0  0  0  0  0  0  0  0  0  0
  -10.6073    0.4951   26.3581 C   0  0  0  0  0  0  0  0  0  0  0  0
  -10.9927   -0.4043   26.6689 C   0  0  0  0  0  0  0  0  0  0  0  0
  -11.0758   -1.2483   27.3999 C   0  0  0  0  0  0  0  0  0  0  0  0
  -11.2335   -2.2505   28.2646 C   0  0  0  0  0  0  0  0  0  0  0  0
  -12.0612   -3.2477   28.1290 C   0  0  0  0  0  0  0  0  0  0  0  0
   -8.5589    0.2788   25.3491 C   0  0  0  0  0  0  0  0  0  0  0  0
   -7.4239   -0.2054   25.8848 C   0  0  0  0  0  0  0  0  0  0  0  0
   -6.5413   -1.0128   25.1993 C   0  0  0  0  0  0  0  0  0  0  0  0
   -6.7412   -1.1428   23.7936 C   0  0  0  0  0  0  0  0  0  0  0  0
   -8.6966    0.0632   23.9540 C   0  0  0  0  0  0  0  0  0  0  0  0
   -7.7790   -0.5512   23.1967 C   0  0  0  0  0  0  0  0  0  0  0  0
  -12.8100   -3.2817   26.9588 C   0  0  0  0  0  0  0  0  0  0  0  0
  -13.6255   -4.4510   26.7354 C   0  0  0  0  0  0  0  0  0  0  0  0
  -13.6992   -5.3587   27.7082 C   0  0  0  0  0  0  0  0  0  0  0  0
  -13.0265   -5.3228   28.8814 C   0  0  0  0  0  0  0  0  0  0  0  0
  -12.1535   -4.2599   29.1539 C   0  0  0  0  0  0  0  0  0  0  0  0
  -10.3250   -2.1498   29.5532 C   0  0  0  0  0  0  0  0  0  0  0  0
   -9.2967   -2.9458   29.4982 N   0  0  0  0  0  0  0  0  0  0  0  0
   -8.5791   -3.2092   30.5912 C   0  0  0  0  0  0  0  0  0  0  0  0
   -7.1931   -3.5433   30.4557 C   0  0  0  0  0  0  0  0  0  0  0  0
   -8.6982   -3.3776   28.3445 C   0  0  0  0  0  0  0  0  0  0  0  0
   -7.3851   -3.8593   28.2285 C   0  0  0  0  0  0  0  0  0  0  0  0
   -6.6718   -3.9545   29.3647 C   0  0  0  0  0  0  0  0  0  0  0  0
  3  4  1  0
  5  6  1  0
  4  9  1  0
  4 10  1  0
  4 11  1  0
  6 12  2  3
 12 13  1  0
 13 14  2  3
 14 15  1  0
  6 17  1  0
 15 28  1  0
 28 29  1  0
 29 30  1  0
 29 32  1  0
 31 34  1  0
 33 34  1  0
 15 16  1  0
 30 31  1  0
 33 32  1  0
 17 18  2  0
 18 19  1  0
 19 20  2  0
 20 22  1  0
 22 21  2  0
 21 17  1  0
 16 23  2  0
 23 24  1  0
 24 25  2  0
 25 26  1  0
 26 27  2  0
 27 16  1  0
  1  2  2  0
  2  5  1  0
  5  8  2  0
  8  7  1  0
  7  3  2  0
  3  1  1  0
M  END
$$$$
