No_6466-complexes_sdf/6BKW-FPZ/2024-09-17-14-21-01/
     RDKit          3D

 18 19  0  0  0  0  0  0  0  0999 V2000
   -7.9040    3.9820   27.1177 C   0  0  0  0  0  0  0  0  0  0  0  0
   -7.8663    4.8694   27.9238 C   0  0  0  0  0  0  0  0  0  0  0  0
   -9.0501    3.8017   26.2617 C   0  0  0  0  0  0  0  0  0  0  0  0
   -9.1826    2.7026   25.3575 C   0  0  0  0  0  0  0  0  0  0  0  0
   -8.6940    6.0131   27.8614 C   0  0  0  0  0  0  0  0  0  0  0  0
   -9.7382    4.9916   26.1006 C   0  0  0  0  0  0  0  0  0  0  0  0
   -9.6356    6.0254   26.9506 C   0  0  0  0  0  0  0  0  0  0  0  0
  -10.1481    2.7508   24.3755 C   0  0  0  0  0  0  0  0  0  0  0  0
  -10.4131    1.5974   23.6243 C   0  0  0  0  0  0  0  0  0  0  0  0
   -9.5273    0.4674   23.7750 C   0  0  0  0  0  0  0  0  0  0  0  0
   -8.4705    1.4498   25.5036 C   0  0  0  0  0  0  0  0  0  0  0  0
   -8.6102    0.4265   24.7450 C   0  0  0  0  0  0  0  0  0  0  0  0
   -7.7940   -0.7719   24.9187 C   0  0  0  0  0  0  0  0  0  0  0  0
   -6.9445   -1.0373   24.1299 O   0  0  0  0  0  0  0  0  0  0  0  0
   -7.9207   -1.4552   26.0055 O   0  0  0  0  0  0  0  0  0  0  0  0
  -11.3463    1.6993   22.5243 C   0  0  0  0  0  0  0  0  0  0  0  0
  -12.3009    1.0965   22.4286 C   0  0  0  0  0  0  0  0  0  0  0  0
  -13.2799    1.1626   21.3246 C   0  0  0  0  0  0  0  0  0  0  0  0
  3  4  1  0
 12 13  1  0
 13 14  2  0
 13 15  1  0
  9 16  1  0
 16 17  2  3
 17 18  1  0
  4  8  2  0
  8  9  1  0
  9 10  2  0
 10 12  1  0
 12 11  2  0
 11  4  1  0
  1  2  2  0
  2  5  1  0
  5  7  2  0
  7  6  1  0
  6  3  2  0
  3  1  1  0
M  END
$$$$
