No_6631-complexes_sdf/6BKW-FPZ/2024-09-17-14-21-01/
     RDKit          3D

 19 20  0  0  0  0  0  0  0  0999 V2000
   -7.9040    3.9820   27.1177 C   0  0  0  0  0  0  0  0  0  0  0  0
   -8.2057    2.8231   26.8733 C   0  0  0  0  0  0  0  0  0  0  0  0
   -9.2962    2.4021   26.1155 C   0  0  0  0  0  0  0  0  0  0  0  0
   -8.7358    5.0662   26.5917 C   0  0  0  0  0  0  0  0  0  0  0  0
   -9.7618    4.7023   25.7546 C   0  0  0  0  0  0  0  0  0  0  0  0
  -10.0066    3.4105   25.4922 C   0  0  0  0  0  0  0  0  0  0  0  0
   -8.3943    6.4760   26.8801 C   0  0  0  0  0  0  0  0  0  0  0  0
   -8.5947    7.4080   26.1130 N   0  0  0  0  0  0  0  0  0  0  0  0
   -7.6480    6.5676   27.9680 O   0  0  0  0  0  0  0  0  0  0  0  0
   -7.5561    1.5114   27.3791 C   0  0  0  0  0  0  0  0  0  0  0  0
   -6.1799    1.6340   27.7749 C   0  0  0  0  0  0  0  0  0  0  0  0
   -5.4700    0.5222   28.2612 C   0  0  0  0  0  0  0  0  0  0  0  0
   -6.0791   -0.6988   28.2988 C   0  0  0  0  0  0  0  0  0  0  0  0
   -7.9759    0.2488   27.4582 C   0  0  0  0  0  0  0  0  0  0  0  0
   -7.3641   -0.8010   27.9685 C   0  0  0  0  0  0  0  0  0  0  0  0
   -4.0228    0.7299   28.6615 C   0  0  0  0  0  0  0  0  0  0  0  0
   -3.0719    0.5559   27.6782 C   0  0  0  0  0  0  0  0  0  0  0  0
   -3.0082    1.2805   26.7022 N   0  0  0  0  0  0  0  0  0  0  0  0
   -1.9171   -0.7640   27.8550 Cl  0  0  0  0  0  0  0  0  0  0  0  0
  4  7  1  0
  7  8  1  0
  7  9  2  0
  2 10  1  0
 12 16  1  0
 16 17  1  0
 17 18  1  0
 17 19  1  0
  1  2  2  0
  2  3  1  0
  3  6  2  0
  6  5  1  0
  5  4  2  0
  4  1  1  0
 10 11  2  0
 11 12  1  0
 12 13  2  0
 13 15  1  0
 15 14  2  0
 14 10  1  0
M  END
$$$$
