No_6297-complexes_sdf/6BKW-FPZ/2024-09-17-14-21-01/
     RDKit          3D

 22 24  0  0  0  0  0  0  0  0999 V2000
   -7.9040    3.9820   27.1177 C   0  0  0  0  0  0  0  0  0  0  0  0
   -7.8663    4.8694   27.9238 C   0  0  1  0  0  0  0  0  0  0  0  0
   -9.0491    3.8523   26.2542 C   0  0  0  0  0  0  0  0  0  0  0  0
   -9.9827    3.2456   26.6451 C   0  0  0  0  0  0  0  0  0  0  0  0
   -9.1410    5.3568   28.4612 C   0  0  0  0  0  0  0  0  0  0  0  0
  -10.5003    4.9280   28.1786 C   0  0  0  0  0  0  0  0  0  0  0  0
  -10.8724    4.1156   27.2691 C   0  0  2  0  0  0  0  0  0  0  0  0
  -12.3338    3.6587   27.3970 C   0  0  0  0  0  0  0  0  0  0  0  0
  -13.0256    3.1613   28.2612 C   0  0  0  0  0  0  0  0  0  0  0  0
  -14.3431    2.8802   28.2152 C   0  0  0  0  0  0  0  0  0  0  0  0
  -13.0145    3.9201   26.1525 C   0  0  0  0  0  0  0  0  0  0  0  0
  -12.3303    4.4473   25.0323 C   0  0  0  0  0  0  0  0  0  0  0  0
  -14.9991    3.1320   27.0534 C   0  0  0  0  0  0  0  0  0  0  0  0
  -14.3642    3.7144   25.9864 C   0  0  0  0  0  0  0  0  0  0  0  0
   -6.5132    5.5141   28.7306 Cl  0  0  0  0  0  0  0  0  0  0  0  0
  -12.1331    3.8980   23.8263 C   0  0  0  0  0  0  0  0  0  0  0  0
  -12.2944    2.6208   23.6653 C   0  0  0  0  0  0  0  0  0  0  0  0
  -11.9624    2.0885   22.4160 C   0  0  0  0  0  0  0  0  0  0  0  0
  -11.8948    4.6844   22.6931 C   0  0  0  0  0  0  0  0  0  0  0  0
  -11.4990    4.2480   21.4921 C   0  0  0  0  0  0  0  0  0  0  0  0
  -11.5882    2.8504   21.3319 C   0  0  0  0  0  0  0  0  0  0  0  0
  -14.9497    3.9790   24.9015 F   0  0  0  0  0  0  0  0  0  0  0  0
  1  2  1  0
  1  3  1  0
  3  4  2  0
  2  5  1  0
  5  6  1  0
  4  7  1  0
  6  7  1  0
  7  8  1  1
 11 12  1  0
  2 15  1  1
 12 16  1  0
 14 22  1  0
  8  9  2  0
  9 10  1  0
 10 13  2  0
 13 14  1  0
 14 11  2  0
 11  8  1  0
 16 17  2  0
 17 18  1  0
 18 21  2  0
 21 20  1  0
 20 19  2  0
 19 16  1  0
M  END
$$$$
