No_6583-complexes_sdf/6BKW-FPZ/2024-09-17-14-21-01/
     RDKit          3D

 11 11  0  0  0  0  0  0  0  0999 V2000
   -7.7129    4.2099   27.0854 C   0  0  0  0  0  0  0  0  0  0  0  0
   -8.2112    3.0637   26.9225 C   0  0  0  0  0  0  0  0  0  0  0  0
   -8.5108    5.3904   26.9436 C   0  0  0  0  0  0  0  0  0  0  0  0
   -9.7256    5.1955   26.3518 C   0  0  0  0  0  0  0  0  0  0  0  0
   -9.4995    2.8258   26.4878 C   0  0  0  0  0  0  0  0  0  0  0  0
  -10.1842    4.0012   26.2386 C   0  0  0  0  0  0  0  0  0  0  0  0
   -7.8937    6.7110   27.1961 C   0  0  0  0  0  0  0  0  0  0  0  0
   -7.4131    1.9053   27.2430 N   0  0  0  0  0  0  0  0  0  0  0  0
   -7.7307    0.6183   27.0614 C   0  0  0  0  0  0  0  0  0  0  0  0
   -6.8089   -0.1606   26.5016 C   0  0  0  0  0  0  0  0  0  0  0  0
   -7.1171   -1.5153   26.1943 C   0  0  0  0  0  0  0  0  0  0  0  0
  3  7  1  0
  2  8  1  0
  8  9  1  0
  9 10  2  3
 10 11  1  0
  1  2  2  0
  2  5  1  0
  5  6  2  0
  6  4  1  0
  4  3  2  0
  3  1  1  0
M  END
$$$$
