No_6689-complexes_sdf/6BKW-FPZ/2024-09-17-14-21-01/
     RDKit          3D

 12 13  0  0  0  0  0  0  0  0999 V2000
   -7.9040    3.9820   27.1177 C   0  0  0  0  0  0  0  0  0  0  0  0
   -7.8663    4.8694   27.9238 C   0  0  0  0  0  0  0  0  0  0  0  0
   -7.4698    2.6989   27.4277 C   0  0  0  0  0  0  0  0  0  0  0  0
   -6.1691    2.6024   27.7920 C   0  0  0  0  0  0  0  0  0  0  0  0
   -8.5251    6.1376   27.6596 C   0  0  0  0  0  0  0  0  0  0  0  0
   -8.9724    4.1320   26.1724 C   0  0  0  0  0  0  0  0  0  0  0  0
   -9.5826    5.3306   25.8444 C   0  0  0  0  0  0  0  0  0  0  0  0
   -9.3147    6.4110   26.6793 C   0  0  0  0  0  0  0  0  0  0  0  0
   -5.4767    1.3291   27.9782 C   0  0  0  0  0  0  0  0  0  0  0  0
   -6.1923    0.1656   27.8052 C   0  0  0  0  0  0  0  0  0  0  0  0
   -8.0851    1.4765   27.1117 C   0  0  0  0  0  0  0  0  0  0  0  0
   -7.5108    0.2718   27.3364 C   0  0  0  0  0  0  0  0  0  0  0  0
  1  3  1  0
  1  2  2  0
  2  5  1  0
  5  8  2  0
  8  7  1  0
  7  6  2  0
  6  1  1  0
  3  4  2  0
  4  9  1  0
  9 10  2  0
 10 12  1  0
 12 11  2  0
 11  3  1  0
M  END
$$$$
