No_6236-complexes_sdf/6BKW-FPZ/2024-09-17-14-21-01/
     RDKit          3D

 18 19  0  0  0  0  0  0  0  0999 V2000
   -7.9040    3.9820   27.1177 C   0  0  0  0  0  0  0  0  0  0  0  0
   -7.8663    4.8694   27.9238 C   0  0  0  0  0  0  0  0  0  0  0  0
   -7.4698    2.6989   27.4277 C   0  0  0  0  0  0  0  0  0  0  0  0
   -7.9683    1.5964   26.8266 C   0  0  1  0  0  0  0  0  0  0  0  0
   -8.9447    1.7923   25.8533 C   0  0  0  0  0  0  0  0  0  0  0  0
   -9.4405    2.9988   25.5757 C   0  0  1  0  0  0  0  0  0  0  0  0
   -8.9424    4.1117   26.2388 C   0  0  0  0  0  0  0  0  0  0  0  0
   -8.2460    6.2906   27.6575 C   0  0  0  0  0  0  0  0  0  0  0  0
   -9.1845    6.5830   26.6401 C   0  0  0  0  0  0  0  0  0  0  0  0
   -9.5389    5.3912   25.8820 C   0  0  0  0  0  0  0  0  0  0  0  0
   -7.4004    0.2532   27.0943 C   0  0  0  0  0  0  0  0  0  0  0  0
   -8.2079   -0.7844   27.4236 C   0  0  0  0  0  0  0  0  0  0  0  0
   -5.9920    0.0808   27.0630 C   0  0  0  0  0  0  0  0  0  0  0  0
   -5.2812    1.0944   27.3685 F   0  0  0  0  0  0  0  0  0  0  0  0
   -5.6169   -0.2679   25.8433 F   0  0  0  0  0  0  0  0  0  0  0  0
   -5.5625   -0.8291   27.9780 F   0  0  0  0  0  0  0  0  0  0  0  0
  -10.4000    3.1049   24.4560 C   0  0  0  0  0  0  0  0  0  0  0  0
  -10.0102    3.4133   23.2175 C   0  0  0  0  0  0  0  0  0  0  0  0
  1  3  1  0
  3  4  1  0
  4  5  1  0
  5  6  1  0
  6  7  1  0
  4 11  1  6
 11 12  2  0
 11 13  1  0
 13 14  1  0
 13 15  1  0
 13 16  1  0
  6 17  1  6
 17 18  2  0
  1  2  2  0
  2  8  1  0
  8  9  2  0
  9 10  1  0
 10  7  2  0
  7  1  1  0
M  END
$$$$
