No_6924-complexes_sdf/6BKW-FPZ/2024-09-17-14-21-01/
     RDKit          3D

 22 23  0  0  0  0  0  0  0  0999 V2000
   -7.7129    4.2099   27.0854 C   0  0  0  0  0  0  0  0  0  0  0  0
   -8.2112    3.0637   26.9225 C   0  0  0  0  0  0  0  0  0  0  0  0
   -9.4446    2.8304   26.1868 C   0  0  0  0  0  0  0  0  0  0  0  0
   -8.4697    5.3956   26.7238 C   0  0  0  0  0  0  0  0  0  0  0  0
   -8.0091    6.7588   26.9904 C   0  0  0  0  0  0  0  0  0  0  0  0
  -10.1208    3.9213   25.7408 C   0  0  0  0  0  0  0  0  0  0  0  0
   -9.5939    5.2026   25.9665 C   0  0  0  0  0  0  0  0  0  0  0  0
   -8.6501    7.8970   26.5643 C   0  0  0  0  0  0  0  0  0  0  0  0
   -7.3297    1.6274   27.4700 Cl  0  0  0  0  0  0  0  0  0  0  0  0
   -6.9691    6.7646   27.8893 O   0  0  0  0  0  0  0  0  0  0  0  0
  -11.3099    3.8019   24.9436 C   0  0  0  0  0  0  0  0  0  0  0  0
  -11.2120    3.0703   23.7542 C   0  0  0  0  0  0  0  0  0  0  0  0
  -12.0511    3.2460   22.7672 C   0  0  0  0  0  0  0  0  0  0  0  0
  -10.2420    2.0617   23.5233 C   0  0  0  0  0  0  0  0  0  0  0  0
  -10.1095    1.4081   22.3028 C   0  0  0  0  0  0  0  0  0  0  0  0
  -12.0077    2.6088   21.4637 C   0  0  0  0  0  0  0  0  0  0  0  0
  -10.9794    1.6613   21.2947 C   0  0  0  0  0  0  0  0  0  0  0  0
   -9.0183    0.3706   22.1137 C   0  0  0  0  0  0  0  0  0  0  0  0
   -7.9826    0.4512   22.9593 N   0  0  0  0  0  0  0  0  0  0  0  0
   -7.0133   -0.5200   22.8621 C   0  0  0  0  0  0  0  0  0  0  0  0
   -6.0099   -0.5769   23.8981 C   0  0  0  0  0  0  0  0  0  0  0  0
   -6.9317   -1.3809   21.7744 C   0  0  0  0  0  0  0  0  0  0  0  0
  4  5  1  0
  5  8  1  0
  2  9  1  0
  5 10  2  0
  6 11  1  0
 11 12  1  0
 15 18  1  0
 18 19  2  3
 19 20  1  0
 20 21  1  0
 20 22  1  0
  1  2  2  0
  2  3  1  0
  3  6  2  0
  6  7  1  0
  7  4  2  0
  4  1  1  0
 12 13  2  0
 13 16  1  0
 16 17  2  0
 17 15  1  0
 15 14  2  0
 14 12  1  0
M  END
$$$$
