No_6541-complexes_sdf/6BKW-FPZ/2024-09-17-14-21-01/
     RDKit          3D

 12 12  0  0  0  0  0  0  0  0999 V2000
   -7.9040    3.9820   27.1177 C   0  0  0  0  0  0  0  0  0  0  0  0
   -9.0711    4.3164   27.0630 C   0  0  0  0  0  0  0  0  0  0  0  0
   -9.5294    5.4517   27.7215 C   0  0  0  0  0  0  0  0  0  0  0  0
   -6.9328    4.7309   27.8881 C   0  0  0  0  0  0  0  0  0  0  0  0
   -7.3377    5.8421   28.5537 C   0  0  0  0  0  0  0  0  0  0  0  0
   -8.6411    6.2609   28.3972 C   0  0  0  0  0  0  0  0  0  0  0  0
  -10.1659    3.5880   26.3758 C   0  0  0  0  0  0  0  0  0  0  0  0
  -10.2037    3.8121   25.0049 C   0  0  0  0  0  0  0  0  0  0  0  0
  -10.9099    3.1144   24.0484 C   0  0  0  0  0  0  0  0  0  0  0  0
  -10.8383    3.5064   22.7090 C   0  0  0  0  0  0  0  0  0  0  0  0
  -11.2316    2.6694   21.7311 C   0  0  0  0  0  0  0  0  0  0  0  0
  -11.8306    1.4591   22.0215 C   0  0  0  0  0  0  0  0  0  0  0  0
  2  7  1  0
  7  8  1  0
  8  9  2  3
  9 10  1  0
 10 11  2  3
 11 12  1  0
  1  2  2  0
  2  3  1  0
  3  6  2  0
  6  5  1  0
  5  4  2  0
  4  1  1  0
M  END
$$$$
