No_699-complexes_sdf/6BKW-FPZ/2024-09-17-14-21-01/
     RDKit          3D

 17 18  0  0  0  0  0  0  0  0999 V2000
   -7.9040    3.9820   27.1177 C   0  0  0  0  0  0  0  0  0  0  0  0
   -8.2057    2.8231   26.8733 C   0  0  0  0  0  0  0  0  0  0  0  0
   -7.4766    1.7477   27.4593 C   0  0  0  0  0  0  0  0  0  0  0  0
   -8.7468    5.1251   26.6967 C   0  0  0  0  0  0  0  0  0  0  0  0
   -9.7234    4.8589   25.8202 C   0  0  0  0  0  0  0  0  0  0  0  0
   -9.9711    3.5858   25.4266 C   0  0  0  0  0  0  0  0  0  0  0  0
   -9.2266    2.4957   25.9600 C   0  0  0  0  0  0  0  0  0  0  0  0
   -6.5573    2.1246   28.2721 F   0  0  0  0  0  0  0  0  0  0  0  0
   -6.9066    0.8115   26.7941 F   0  0  0  0  0  0  0  0  0  0  0  0
   -8.4151    6.5186   27.0954 C   0  0  0  0  0  0  0  0  0  0  0  0
   -7.9644    7.6164   27.0696 N   0  0  0  0  0  0  0  0  0  0  0  0
  -11.0175    3.3352   24.4268 C   0  0  0  0  0  0  0  0  0  0  0  0
  -10.9239    2.3189   23.5688 C   0  0  0  0  0  0  0  0  0  0  0  0
  -11.6398    2.2322   22.4522 C   0  0  0  0  0  0  0  0  0  0  0  0
  -12.6331    3.2599   22.1900 C   0  0  0  0  0  0  0  0  0  0  0  0
  -12.7120    4.3343   23.0312 C   0  0  0  0  0  0  0  0  0  0  0  0
  -11.8446    4.4803   24.1055 C   0  0  0  0  0  0  0  0  0  0  0  0
  2  3  1  0
  3  8  1  0
  3  9  1  0
  4 10  1  0
 10 11  3  0
  6 12  1  0
 12 13  2  0
 13 14  1  0
 14 15  2  0
 15 16  1  0
 16 17  2  0
 17 12  1  0
  1  2  2  0
  2  7  1  0
  7  6  2  0
  6  5  1  0
  5  4  2  0
  4  1  1  0
M  END
$$$$
