No_6648-complexes_sdf/6BKW-FPZ/2024-09-17-14-21-01/
     RDKit          3D

 13 14  0  0  0  0  0  0  0  0999 V2000
   -7.9040    3.9820   27.1177 C   0  0  0  0  0  0  0  0  0  0  0  0
   -7.8663    4.8694   27.9238 C   0  0  0  0  0  0  0  0  0  0  0  0
   -7.4698    2.6989   27.4277 C   0  0  0  0  0  0  0  0  0  0  0  0
   -7.9683    1.5964   26.8266 C   0  0  1  0  0  0  0  0  0  0  0  0
   -8.9447    1.7923   25.8533 C   0  0  0  0  0  0  0  0  0  0  0  0
   -9.4405    2.9988   25.5757 C   0  0  0  0  0  0  0  0  0  0  0  0
   -8.9424    4.1117   26.2388 C   0  0  0  0  0  0  0  0  0  0  0  0
   -8.2732    6.2141   27.6484 N   0  0  0  0  0  0  0  0  0  0  0  0
   -9.1790    6.5361   26.7045 C   0  0  0  0  0  0  0  0  0  0  0  0
   -9.5395    5.4021   25.9218 C   0  0  0  0  0  0  0  0  0  0  0  0
   -7.3870    0.2618   27.0958 C   0  0  0  0  0  0  0  0  0  0  0  0
   -8.1818   -0.7866   27.3577 C   0  0  0  0  0  0  0  0  0  0  0  0
   -7.6471   -2.0087   27.7679 C   0  0  0  0  0  0  0  0  0  0  0  0
  1  3  1  0
  4  3  1  6
  4  5  1  0
  5  6  1  0
  6  7  1  0
  4 11  1  0
 11 12  2  3
 12 13  1  0
  1  2  2  0
  2  8  1  0
  8  9  2  0
  9 10  1  0
 10  7  2  0
  7  1  1  0
M  END
$$$$
