No_6624-complexes_sdf/6BKW-FPZ/2024-09-17-14-21-01/
     RDKit          3D

 37 42  0  0  0  0  0  0  0  0999 V2000
   -7.7129    4.2099   27.0854 C   0  0  0  0  0  0  0  0  0  0  0  0
   -8.2112    3.0637   26.9225 C   0  0  0  0  0  0  0  0  0  0  0  0
   -7.0021    4.5281   28.2396 C   0  0  0  0  0  0  0  0  0  0  0  0
   -9.4237    2.7810   26.2714 C   0  0  0  0  0  0  0  0  0  0  0  0
   -9.8781    3.7859   25.4663 C   0  0  0  0  0  0  0  0  0  0  0  0
   -9.3689    5.0975   25.5965 C   0  0  0  0  0  0  0  0  0  0  0  0
   -8.4784    5.3402   26.5448 C   0  0  0  0  0  0  0  0  0  0  0  0
  -11.0245    3.3677   24.6317 C   0  0  0  0  0  0  0  0  0  0  0  0
  -12.1892    3.5795   24.8655 C   0  0  0  0  0  0  0  0  0  0  0  0
  -10.6662    2.9593   23.2840 C   0  0  0  0  0  0  0  0  0  0  0  0
  -11.5672    2.7380   22.3191 C   0  0  0  0  0  0  0  0  0  0  0  0
  -13.2772    3.4000   23.9622 C   0  0  0  0  0  0  0  0  0  0  0  0
  -12.9226    2.9604   22.6884 C   0  0  0  0  0  0  0  0  0  0  0  0
   -7.0013    5.7680   28.7061 N   0  0  0  0  0  0  0  0  0  0  0  0
   -8.1229    6.6156   27.0061 C   0  0  0  0  0  0  0  0  0  0  0  0
   -7.3486    6.7994   28.1374 C   0  0  0  0  0  0  0  0  0  0  0  0
   -8.7226    7.8490   26.3646 C   0  0  0  0  0  0  0  0  0  0  0  0
   -7.5514    1.8341   27.5643 C   0  0  0  0  0  0  0  0  0  0  0  0
   -7.9606    0.5209   27.2559 C   0  0  0  0  0  0  0  0  0  0  0  0
   -9.1807    0.3275   26.6578 C   0  0  0  0  0  0  0  0  0  0  0  0
   -9.8405    1.4533   26.0054 C   0  0  0  0  0  0  0  0  0  0  0  0
   -9.7098   -0.9809   26.4763 C   0  0  0  0  0  0  0  0  0  0  0  0
  -10.2394   -1.3573   25.5228 C   0  0  0  0  0  0  0  0  0  0  0  0
  -10.9101   -2.6443   25.3556 C   0  0  0  0  0  0  0  0  0  0  0  0
  -10.8466   -3.4840   26.4087 C   0  0  0  0  0  0  0  0  0  0  0  0
  -10.2258   -3.1234   27.5789 C   0  0  0  0  0  0  0  0  0  0  0  0
   -9.6567   -1.8428   27.7362 C   0  0  0  0  0  0  0  0  0  0  0  0
  -14.6793    3.6456   24.2743 C   0  0  0  0  0  0  0  0  0  0  0  0
  -15.1074    3.7454   25.5486 C   0  0  0  0  0  0  0  0  0  0  0  0
  -16.4760    4.0119   25.8346 C   0  0  0  0  0  0  0  0  0  0  0  0
  -17.3295    4.1747   24.7762 C   0  0  0  0  0  0  0  0  0  0  0  0
  -15.6292    3.9343   23.3046 C   0  0  0  0  0  0  0  0  0  0  0  0
  -16.8972    4.2085   23.5421 C   0  0  0  0  0  0  0  0  0  0  0  0
  -11.5356   -3.0329   24.0983 C   0  0  0  0  0  0  0  0  0  0  0  0
  -12.0078   -2.2698   23.3202 N   0  0  0  0  0  0  0  0  0  0  0  0
  -12.4235   -2.3486   22.1433 C   0  0  0  0  0  0  0  0  0  0  0  0
  -12.9743   -1.2384   21.3989 C   0  0  0  0  0  0  0  0  0  0  0  0
  5  8  1  0
 15 17  1  0
 20 22  1  0
 12 28  1  0
 24 34  1  0
 34 35  1  0
 35 36  1  0
 36 37  2  0
 28 29  2  0
 29 30  1  0
 30 31  2  0
 31 33  1  0
 33 32  2  0
 32 28  1  0
 22 23  2  0
 23 24  1  0
 24 25  2  0
 25 26  1  0
 26 27  2  0
 27 22  1  0
  1  3  2  0
  3 14  1  0
 14 16  2  0
 16 15  1  0
 15  7  2  0
  4 21  2  0
 21 20  1  0
 20 19  2  0
 19 18  1  0
 18  2  2  0
  8  9  2  0
  9 12  1  0
 12 13  2  0
 13 11  1  0
 11 10  2  0
 10  8  1  0
  1  2  1  0
  2  4  1  0
  4  5  1  0
  5  6  2  0
  6  7  1  0
  7  1  1  0
M  END
$$$$
