No_6441-complexes_sdf/6BKW-FPZ/2024-09-17-14-21-01/
     RDKit          3D

 27 30  0  0  0  0  0  0  0  0999 V2000
   -7.7129    4.2099   27.0854 C   0  0  0  0  0  0  0  0  0  0  0  0
   -8.9133    4.4736   27.0998 C   0  0  2  0  0  0  0  0  0  0  0  0
   -9.7135    3.9633   26.0300 C   0  0  0  0  0  0  0  0  0  0  0  0
   -6.8420    4.9760   28.0851 C   0  0  0  0  0  0  0  0  0  0  0  0
   -9.6552    4.2399   24.9004 C   0  0  0  0  0  0  0  0  0  0  0  0
  -10.4286    3.7872   23.7716 C   0  0  0  0  0  0  0  0  0  0  0  0
  -10.3014    4.2743   22.4915 C   0  0  0  0  0  0  0  0  0  0  0  0
  -11.2137    2.6392   24.0473 C   0  0  0  0  0  0  0  0  0  0  0  0
  -12.0089    2.1324   23.0033 C   0  0  0  0  0  0  0  0  0  0  0  0
  -11.0720    3.8167   21.4592 C   0  0  0  0  0  0  0  0  0  0  0  0
  -11.9389    2.6833   21.7321 C   0  0  0  0  0  0  0  0  0  0  0  0
   -7.7544    5.8296   28.6581 N   0  0  0  0  0  0  0  0  0  0  0  0
   -8.9736    5.5595   27.9732 C   0  0  0  0  0  0  0  0  0  0  0  0
  -11.0330    3.5526   26.6403 C   0  0  0  0  0  0  0  0  0  0  0  0
  -11.4707    2.7614   27.2675 C   0  0  0  0  0  0  0  0  0  0  0  0
  -12.6848    2.5067   27.9601 C   0  0  0  0  0  0  0  0  0  0  0  0
  -13.7093    3.2715   27.4371 C   0  0  0  0  0  0  0  0  0  0  0  0
  -13.4741    4.2607   26.5243 C   0  0  0  0  0  0  0  0  0  0  0  0
  -12.1622    4.5254   26.1238 C   0  0  0  0  0  0  0  0  0  0  0  0
  -10.3089    1.8165   27.9802 C   0  0  0  0  0  0  0  0  0  0  0  0
  -10.6393    0.3631   27.8616 C   0  0  0  0  0  0  0  0  0  0  0  0
  -11.6443   -0.0783   28.1657 C   0  0  0  0  0  0  0  0  0  0  0  0
   -9.4525   -0.4464   27.5679 C   0  0  0  0  0  0  0  0  0  0  0  0
  -12.8035    0.5374   28.5514 C   0  0  0  0  0  0  0  0  0  0  0  0
  -13.2707    1.5824   29.0229 N   0  0  0  0  0  0  0  0  0  0  0  0
   -9.3958   -1.7335   27.8269 C   0  0  0  0  0  0  0  0  0  0  0  0
  -10.7033   -2.3239   28.1145 C   0  0  0  0  0  0  0  0  0  0  0  0
  2  1  1  6
  2  3  1  0
  1  4  1  0
  3  5  2  3
  5  6  1  0
  4 12  2  0
  2 13  1  0
 12 13  1  0
  3 14  1  0
 15 20  1  0
 20 21  1  0
 21 22  2  0
 21 23  1  0
 22 24  1  0
 16 25  1  0
 24 25  1  0
 23 26  2  3
 26 27  1  0
 14 15  2  0
 15 16  1  0
 16 17  2  0
 17 18  1  0
 18 19  2  0
 19 14  1  0
  6  7  2  0
  7 10  1  0
 10 11  2  0
 11  9  1  0
  9  8  2  0
  8  6  1  0
M  END
$$$$
