No_6266-complexes_sdf/6BKW-FPZ/2024-09-17-14-21-01/
     RDKit          3D

 17 18  0  0  0  0  0  0  0  0999 V2000
   -7.2496    3.8871   27.4508 C   0  0  0  0  0  0  0  0  0  0  0  0
   -7.6161    2.7143   27.1523 C   0  0  0  0  0  0  0  0  0  0  0  0
   -7.1618    1.8631   27.5232 C   0  0  0  0  0  0  0  0  0  0  0  0
   -8.0384    5.0866   27.3232 C   0  0  0  0  0  0  0  0  0  0  0  0
   -9.1223    5.1097   26.4856 C   0  0  0  0  0  0  0  0  0  0  0  0
   -8.9186    2.6660   26.4794 C   0  0  0  0  0  0  0  0  0  0  0  0
   -9.6149    3.8296   26.1383 C   0  0  0  0  0  0  0  0  0  0  0  0
   -5.8176    1.8586   28.0230 N   0  0  0  0  0  0  0  0  0  0  0  0
   -5.1435    0.6369   28.3578 C   0  0  0  0  0  0  0  0  0  0  0  0
   -5.7787   -0.4925   28.2523 C   0  0  0  0  0  0  0  0  0  0  0  0
   -7.6045    0.4269   27.5613 C   0  0  0  0  0  0  0  0  0  0  0  0
   -7.0125   -0.6236   27.9267 C   0  0  0  0  0  0  0  0  0  0  0  0
   -3.7984    0.8969   28.7839 N   0  0  0  0  0  0  0  0  0  0  0  0
   -7.2867    6.3713   27.7438 C   0  0  0  0  0  0  0  0  0  0  0  0
  -10.7293    3.9384   25.2055 C   0  0  0  0  0  0  0  0  0  0  0  0
  -11.9959    3.7586   25.6907 C   0  0  0  0  0  0  0  0  0  0  0  0
  -13.1462    3.8646   24.8914 C   0  0  0  0  0  0  0  0  0  0  0  0
  2  3  1  0
  9 13  1  0
  4 14  1  0
  7 15  1  0
 15 16  2  3
 16 17  1  0
  3  8  2  0
  8  9  1  0
  9 10  2  0
 10 12  1  0
 12 11  2  0
 11  3  1  0
  1  2  2  0
  2  6  1  0
  6  7  2  0
  7  5  1  0
  5  4  2  0
  4  1  1  0
M  END
$$$$
