No_6256-complexes_sdf/6BKW-FPZ/2024-09-17-14-21-01/
     RDKit          3D

 34 36  0  0  0  0  0  0  0  0999 V2000
   -7.7129    4.2099   27.0854 C   0  0  0  0  0  0  0  0  0  0  0  0
   -8.9133    4.4736   27.0998 C   0  0  0  0  0  0  0  0  0  0  0  0
   -9.4616    5.6470   27.6290 C   0  0  0  0  0  0  0  0  0  0  0  0
   -7.2326    2.9175   26.7557 C   0  0  0  0  0  0  0  0  0  0  0  0
   -8.1546    1.9086   26.5054 C   0  0  0  0  0  0  0  0  0  0  0  0
   -9.4618    2.2289   26.4212 C   0  0  0  0  0  0  0  0  0  0  0  0
   -9.8481    3.4572   26.7692 C   0  0  0  0  0  0  0  0  0  0  0  0
   -7.6166    0.5674   26.2050 C   0  0  0  0  0  0  0  0  0  0  0  0
   -7.6798    0.1011   25.1276 O   0  0  0  0  0  0  0  0  0  0  0  0
   -7.0472   -0.1587   27.2855 N   0  0  0  0  0  0  0  0  0  0  0  0
   -6.4486   -1.2037   27.3527 C   0  0  0  0  0  0  0  0  0  0  0  0
   -7.0015   -2.0344   27.9262 C   0  0  0  0  0  0  0  0  0  0  0  0
   -7.9434   -1.8161   28.9364 C   0  0  0  0  0  0  0  0  0  0  0  0
   -8.5326   -2.8086   29.7658 C   0  0  0  0  0  0  0  0  0  0  0  0
   -8.1557   -4.1020   29.5641 C   0  0  0  0  0  0  0  0  0  0  0  0
   -7.2407   -4.4137   28.6356 C   0  0  0  0  0  0  0  0  0  0  0  0
   -6.6412   -3.4767   27.9295 C   0  0  0  0  0  0  0  0  0  0  0  0
   -5.1986   -1.1208   27.0428 O   0  0  0  0  0  0  0  0  0  0  0  0
   -8.7536    6.7166   27.3630 F   0  0  0  0  0  0  0  0  0  0  0  0
   -9.7370    5.6836   28.9987 F   0  0  0  0  0  0  0  0  0  0  0  0
  -10.7535    5.9022   27.1948 F   0  0  0  0  0  0  0  0  0  0  0  0
   -8.7625   -5.0854   30.3646 O   0  0  0  0  0  0  0  0  0  0  0  0
   -9.9199   -5.3655   30.3392 C   0  0  0  0  0  0  0  0  0  0  0  0
  -10.2938   -6.3671   30.1120 C   0  0  0  0  0  0  0  0  0  0  0  0
  -11.7689   -6.7300   30.0355 C   0  0  0  0  0  0  0  0  0  0  0  0
  -12.6721   -5.7039   30.3258 C   0  0  0  0  0  0  0  0  0  0  0  0
  -12.2088   -4.4602   30.6282 C   0  0  0  0  0  0  0  0  0  0  0  0
  -10.8940   -4.1843   30.6762 C   0  0  0  0  0  0  0  0  0  0  0  0
  -13.2029   -3.3586   30.9477 C   0  0  0  0  0  0  0  0  0  0  0  0
  -13.2665   -2.9597   32.2140 C   0  0  0  0  0  0  0  0  0  0  0  0
  -13.6493   -2.0854   32.7940 C   0  0  0  0  0  0  0  0  0  0  0  0
  -13.5330   -1.7206   34.2525 C   0  0  0  0  0  0  0  0  0  0  0  0
  -12.6974   -2.5734   34.9749 C   0  0  0  0  0  0  0  0  0  0  0  0
  -12.0663   -3.6004   34.3623 C   0  0  0  0  0  0  0  0  0  0  0  0
  2  3  1  0
  5  8  1  0
  8  9  2  0
  8 10  1  0
 10 11  1  0
 11 12  1  0
 11 18  2  0
  3 19  1  0
  3 20  1  0
  3 21  1  0
 15 22  1  0
 22 23  1  0
 27 29  1  0
 29 30  2  3
 30 31  1  0
 31 32  2  3
 32 33  1  0
 33 34  2  0
 12 13  2  0
 13 14  1  0
 14 15  2  0
 15 16  1  0
 16 17  2  0
 17 12  1  0
 23 24  2  0
 24 25  1  0
 25 26  2  0
 26 27  1  0
 27 28  2  0
 28 23  1  0
  1  2  2  0
  2  7  1  0
  7  6  2  0
  6  5  1  0
  5  4  2  0
  4  1  1  0
M  END
$$$$
