No_6621-complexes_sdf/6BKW-FPZ/2024-09-17-14-21-01/
     RDKit          3D

 29 34  0  0  0  0  0  0  0  0999 V2000
   -7.2496    3.8871   27.4508 C   0  0  0  0  0  0  0  0  0  0  0  0
   -7.6161    2.7143   27.1523 C   0  0  0  0  0  0  0  0  0  0  0  0
   -7.1618    1.8631   27.5233 C   0  0  0  0  0  0  0  0  0  0  0  0
   -6.0841    4.1113   28.0941 C   0  0  0  0  0  0  0  0  0  0  0  0
   -5.8038    1.7595   28.0571 C   0  0  0  0  0  0  0  0  0  0  0  0
   -5.2905    3.0280   28.3422 C   0  0  0  0  0  0  0  0  0  0  0  0
   -9.0772    2.6049   26.5541 C   0  0  0  0  0  0  0  0  0  0  0  0
   -9.8897    3.7053   26.4302 C   0  0  0  0  0  0  0  0  0  0  0  0
   -9.3848    4.9084   27.0425 C   0  0  0  0  0  0  0  0  0  0  0  0
   -8.1251    5.1016   27.4975 C   0  0  0  0  0  0  0  0  0  0  0  0
   -7.6443    6.4075   27.8643 C   0  0  0  0  0  0  0  0  0  0  0  0
   -4.9745    0.5604   28.2440 C   0  0  0  0  0  0  0  0  0  0  0  0
   -3.7094    0.6035   28.6127 C   0  0  0  0  0  0  0  0  0  0  0  0
   -5.6842   -0.7096   28.3463 C   0  0  0  0  0  0  0  0  0  0  0  0
   -6.8629   -0.9646   27.8977 C   0  0  0  0  0  0  0  0  0  0  0  0
   -7.6044    0.3237   27.4145 C   0  0  0  0  0  0  0  0  0  0  0  0
   -2.9958   -0.4757   29.1378 C   0  0  0  0  0  0  0  0  0  0  0  0
   -3.6193   -1.7062   29.1734 C   0  0  0  0  0  0  0  0  0  0  0  0
   -4.9221   -1.8391   28.7635 C   0  0  0  0  0  0  0  0  0  0  0  0
   -9.5344    1.3624   26.0449 C   0  0  0  0  0  0  0  0  0  0  0  0
   -8.8724    0.1343   26.6577 C   0  0  2  0  0  0  0  0  0  0  0  0
   -9.4865   -1.1201   26.5450 C   0  0  0  0  0  0  0  0  0  0  0  0
   -9.1067   -2.1499   26.2660 C   0  0  0  0  0  0  0  0  0  0  0  0
   -7.8402   -2.2740   25.5599 C   0  0  0  0  0  0  0  0  0  0  0  0
   -7.5197   -3.4177   24.8369 C   0  0  0  0  0  0  0  0  0  0  0  0
   -6.2926   -3.4367   24.2106 C   0  0  0  0  0  0  0  0  0  0  0  0
   -5.6008   -2.2574   24.2002 C   0  0  0  0  0  0  0  0  0  0  0  0
   -5.8529   -1.1056   24.8563 C   0  0  0  0  0  0  0  0  0  0  0  0
   -6.9657   -1.1288   25.4966 C   0  0  0  0  0  0  0  0  0  0  0  0
 10 11  1  0
  7 20  1  0
 16 21  1  0
 21 20  1  1
 21 22  1  0
 22 23  2  3
 23 24  1  0
  2  3  1  0
  5  6  1  0
  6  4  2  0
  4  1  1  0
 24 25  2  0
 25 26  1  0
 26 27  2  0
 27 28  1  0
 28 29  2  0
 29 24  1  0
  1  2  2  0
  2  7  1  0
  7  8  2  0
  8  9  1  0
  9 10  2  0
 10  1  1  0
 12 13  2  0
 13 17  1  0
 17 18  2  0
 18 19  1  0
 19 14  2  0
  3  5  2  0
  5 12  1  0
 12 14  1  0
 14 15  1  0
 15 16  2  0
 16  3  1  0
M  END
$$$$
