No_6757-complexes_sdf/6BKW-FPZ/2024-09-17-14-21-01/
     RDKit          3D

 15 17  0  0  0  0  0  0  0  0999 V2000
   -7.7129    4.2099   27.0854 C   0  0  0  0  0  0  0  0  0  0  0  0
   -7.7814    5.1722   27.8972 C   0  0  0  0  0  0  0  0  0  0  0  0
   -7.2983    2.9533   27.5684 C   0  0  0  0  0  0  0  0  0  0  0  0
   -7.6908    1.8111   26.9553 C   0  0  0  0  0  0  0  0  0  0  0  0
   -8.6533    1.9165   25.9430 C   0  0  0  0  0  0  0  0  0  0  0  0
   -9.2376    3.0581   25.6387 C   0  0  0  0  0  0  0  0  0  0  0  0
   -8.8901    4.1760   26.2867 C   0  0  0  0  0  0  0  0  0  0  0  0
   -8.3894    6.3916   27.5666 N   0  0  0  0  0  0  0  0  0  0  0  0
   -9.2374    5.5083   26.2102 N   0  0  0  0  0  0  0  0  0  0  0  0
   -7.0694    0.5200   27.2440 C   0  0  0  0  0  0  0  0  0  0  0  0
   -7.7471   -0.6456   27.2694 C   0  0  0  0  0  0  0  0  0  0  0  0
   -7.1763   -1.7788   27.7084 C   0  0  0  0  0  0  0  0  0  0  0  0
   -5.7310    0.4904   27.6444 C   0  0  0  0  0  0  0  0  0  0  0  0
   -5.1015   -0.6094   28.1093 C   0  0  0  0  0  0  0  0  0  0  0  0
   -5.8622   -1.7826   28.1901 C   0  0  0  0  0  0  0  0  0  0  0  0
  2  8  2  0
  7  9  1  0
  8  9  1  0
  4 10  1  0
  2  1  1  0
 10 11  2  0
 11 12  1  0
 12 15  2  0
 15 14  1  0
 14 13  2  0
 13 10  1  0
  1  3  2  0
  3  4  1  0
  4  5  2  0
  5  6  1  0
  6  7  2  0
  7  1  1  0
M  END
$$$$
