No_6010-complexes_sdf/6BKW-FPZ/2024-09-17-14-21-01/
     RDKit          3D

 15 16  0  0  0  0  0  0  0  0999 V2000
   -7.2496    3.8871   27.4508 C   0  0  0  0  0  0  0  0  0  0  0  0
   -7.6161    2.7143   27.1523 C   0  0  0  0  0  0  0  0  0  0  0  0
   -8.8302    2.4659   26.5056 C   0  0  0  0  0  0  0  0  0  0  0  0
   -8.1584    5.0090   27.3234 C   0  0  0  0  0  0  0  0  0  0  0  0
   -9.3788    4.7965   26.7695 C   0  0  0  0  0  0  0  0  0  0  0  0
   -9.7028    3.5649   26.3276 C   0  0  0  0  0  0  0  0  0  0  0  0
   -6.7190    1.5585   27.3667 C   0  0  0  0  0  0  0  0  0  0  0  0
   -7.0603    0.2838   27.2183 N   0  0  0  0  0  0  0  0  0  0  0  0
   -5.4605    1.7567   27.8063 N   0  0  0  0  0  0  0  0  0  0  0  0
   -6.3614   -0.7043   27.3733 C   0  0  0  0  0  0  0  0  0  0  0  0
   -4.5950    0.7818   28.0914 C   0  0  0  0  0  0  0  0  0  0  0  0
   -5.0058   -0.4993   27.9309 C   0  0  0  0  0  0  0  0  0  0  0  0
   -7.6915    6.3551   27.7835 C   0  0  0  0  0  0  0  0  0  0  0  0
   -3.3713    1.0953   28.5904 N   0  0  0  0  0  0  0  0  0  0  0  0
   -8.4207    7.4038   27.2654 N   0  0  0  0  0  0  0  0  0  0  0  0
  2  7  1  0
  4 13  1  0
 11 14  1  0
 13 15  1  0
  1  2  2  0
  2  3  1  0
  3  6  2  0
  6  5  1  0
  5  4  2  0
  4  1  1  0
  7  8  2  0
  8 10  1  0
 10 12  2  0
 12 11  1  0
 11  9  2  0
  9  7  1  0
M  END
$$$$
