No_630-complexes_sdf/6BKW-FPZ/2024-09-17-14-21-01/
     RDKit          3D

 27 30  0  0  0  0  0  0  0  0999 V2000
   -7.2496    3.8871   27.4508 C   0  0  0  0  0  0  0  0  0  0  0  0
   -7.6161    2.7143   27.1523 C   0  0  0  0  0  0  0  0  0  0  0  0
   -8.8302    2.4659   26.5056 C   0  0  0  0  0  0  0  0  0  0  0  0
   -8.1584    5.0090   27.3234 C   0  0  0  0  0  0  0  0  0  0  0  0
   -9.3788    4.7965   26.7695 C   0  0  0  0  0  0  0  0  0  0  0  0
   -9.7028    3.5649   26.3276 C   0  0  0  0  0  0  0  0  0  0  0  0
   -6.7813    1.6452   27.3678 O   0  0  0  0  0  0  0  0  0  0  0  0
   -7.0170    0.3970   26.9540 C   0  0  0  0  0  0  0  0  0  0  0  0
   -6.2856   -0.4396   27.5967 C   0  0  0  0  0  0  0  0  0  0  0  0
   -6.4693   -1.8564   27.3112 C   0  0  0  0  0  0  0  0  0  0  0  0
   -7.4417   -2.1602   26.3424 C   0  0  0  0  0  0  0  0  0  0  0  0
   -7.9252   -0.1344   26.0802 C   0  0  0  0  0  0  0  0  0  0  0  0
   -8.1376   -1.3012   25.7961 C   0  0  0  0  0  0  0  0  0  0  0  0
   -8.9429    1.1191   25.7225 C   0  0  1  0  0  0  0  0  0  0  0  0
   -7.7567    6.3438   27.8949 C   0  0  0  0  0  0  0  0  0  0  0  0
   -9.9515    0.9076   24.8001 C   0  0  0  0  0  0  0  0  0  0  0  0
  -11.1721    0.6601   25.1431 C   0  0  0  0  0  0  0  0  0  0  0  0
   -9.4397    0.7103   23.4196 C   0  0  0  0  0  0  0  0  0  0  0  0
  -10.2936    0.6483   22.3640 C   0  0  0  0  0  0  0  0  0  0  0  0
  -12.1155    0.5134   24.0359 C   0  0  0  0  0  0  0  0  0  0  0  0
  -11.6462    0.4840   22.6802 C   0  0  0  0  0  0  0  0  0  0  0  0
   -7.6130    7.3268   26.8102 C   0  0  0  0  0  0  0  0  0  0  0  0
   -9.0293   -1.5039   24.8455 O   0  0  0  0  0  0  0  0  0  0  0  0
   -9.1194   -2.9005   24.5800 C   0  0  0  0  0  0  0  0  0  0  0  0
   -9.8270   -3.1096   23.4521 C   0  0  0  0  0  0  0  0  0  0  0  0
   -8.6599   -3.8442   25.3623 C   0  0  0  0  0  0  0  0  0  0  0  0
   -7.6740   -3.5368   26.1880 C   0  0  0  0  0  0  0  0  0  0  0  0
  2  7  1  0
  7  8  1  0
  3 14  1  0
 12 14  1  0
  4 15  1  0
 14 16  1  1
 15 22  1  0
 13 23  1  0
 23 24  1  0
 24 25  2  0
 24 26  1  0
 26 27  2  0
 16 17  2  0
 17 20  1  0
 20 21  2  0
 21 19  1  0
 19 18  2  0
 18 16  1  0
  1  2  2  0
  2  3  1  0
  3  6  2  0
  6  5  1  0
  5  4  2  0
  4  1  1  0
  8  9  2  0
  9 10  1  0
 10 11  2  0
 11 13  1  0
 13 12  2  0
 12  8  1  0
M  END
$$$$
