No_6047-complexes_sdf/6BKW-FPZ/2024-09-17-14-21-01/
     RDKit          3D

 28 30  0  0  0  0  0  0  0  0999 V2000
   -7.7129    4.2099   27.0854 C   0  0  0  0  0  0  0  0  0  0  0  0
   -8.2112    3.0637   26.9225 C   0  0  0  0  0  0  0  0  0  0  0  0
   -9.4446    2.8304   26.1868 C   0  0  0  0  0  0  0  0  0  0  0  0
   -6.6388    4.5347   28.1123 C   0  0  0  0  0  0  0  0  0  0  0  0
   -9.9448    3.9173   25.5585 C   0  0  0  0  0  0  0  0  0  0  0  0
   -9.3660    5.1901   25.7094 C   0  0  0  0  0  0  0  0  0  0  0  0
   -8.3659    5.4005   26.5436 C   0  0  0  0  0  0  0  0  0  0  0  0
  -11.1204    3.7819   24.6448 C   0  0  0  0  0  0  0  0  0  0  0  0
  -12.3200    3.5881   25.1544 C   0  0  0  0  0  0  0  0  0  0  0  0
  -10.8965    3.8458   23.2464 C   0  0  0  0  0  0  0  0  0  0  0  0
  -13.4441    3.5219   24.3013 C   0  0  0  0  0  0  0  0  0  0  0  0
  -11.9537    3.8314   22.3730 C   0  0  0  0  0  0  0  0  0  0  0  0
  -13.2302    3.6501   22.9112 C   0  0  0  0  0  0  0  0  0  0  0  0
   -7.6607    1.8964   27.4991 N   0  0  0  0  0  0  0  0  0  0  0  0
   -6.9309    0.9918   26.8151 C   0  0  0  0  0  0  0  0  0  0  0  0
   -6.1973    0.0634   27.7553 C   0  0  0  0  0  0  0  0  0  0  0  0
   -6.3033   -0.9049   28.2087 C   0  0  0  0  0  0  0  0  0  0  0  0
   -5.4083   -1.6102   29.1374 C   0  0  0  0  0  0  0  0  0  0  0  0
   -4.2540   -0.9406   29.5354 C   0  0  0  0  0  0  0  0  0  0  0  0
   -4.0059    0.3204   28.9872 C   0  0  0  0  0  0  0  0  0  0  0  0
   -4.8840    0.9010   28.1381 C   0  0  0  0  0  0  0  0  0  0  0  0
   -3.3048   -1.5543   30.4928 C   0  0  0  0  0  0  0  0  0  0  0  0
   -3.7462   -2.3668   31.1766 O   0  0  0  0  0  0  0  0  0  0  0  0
   -2.1445   -1.0586   30.5132 O   0  0  0  0  0  0  0  0  0  0  0  0
   -7.1334    0.6345   25.7001 O   0  0  0  0  0  0  0  0  0  0  0  0
   -7.7494   -1.8758   27.8971 Cl  0  0  0  0  0  0  0  0  0  0  0  0
   -6.7834    5.5552   28.8954 O   0  0  0  0  0  0  0  0  0  0  0  0
   -5.5376    3.9505   27.9157 O   0  0  0  0  0  0  0  0  0  0  0  0
  1  4  1  0
  5  8  1  0
  2 14  1  0
 14 15  1  0
 15 16  1  0
 19 22  1  0
 22 23  1  0
 22 24  2  0
 15 25  2  0
 17 26  1  0
  4 27  1  0
  4 28  2  0
  8  9  2  0
  9 11  1  0
 11 13  2  0
 13 12  1  0
 12 10  2  0
 10  8  1  0
 16 17  2  0
 17 18  1  0
 18 19  2  0
 19 20  1  0
 20 21  2  0
 21 16  1  0
  1  2  2  0
  2  3  1  0
  3  5  2  0
  5  6  1  0
  6  7  2  0
  7  1  1  0
M  END
$$$$
