No_6470-complexes_sdf/6BKW-FPZ/2024-09-17-14-21-01/
     RDKit          3D

 39 44  0  0  0  0  0  0  0  0999 V2000
   -7.2496    3.8871   27.4508 C   0  0  0  0  0  0  0  0  0  0  0  0
   -7.9379    4.9063   27.8518 C   0  0  0  0  0  0  0  0  0  0  0  0
   -7.5112    6.1898   27.6280 C   0  0  0  0  0  0  0  0  0  0  0  0
   -7.8078    2.6331   27.2522 C   0  0  2  0  0  0  0  0  0  0  0  0
   -7.1538    1.5087   26.7509 C   0  0  0  0  0  0  0  0  0  0  0  0
   -9.2627    2.5305   27.2363 C   0  0  0  0  0  0  0  0  0  0  0  0
   -9.9238    2.9139   26.5039 C   0  0  0  0  0  0  0  0  0  0  0  0
   -9.6545    2.1689   25.2018 C   0  0  1  0  0  0  0  0  0  0  0  0
  -10.4329    2.7030   24.0986 C   0  0  0  0  0  0  0  0  0  0  0  0
   -6.0793    1.0864   27.5118 N   0  0  0  0  0  0  0  0  0  0  0  0
   -7.6515    0.5121   26.0027 C   0  0  0  0  0  0  0  0  0  0  0  0
   -8.6098    1.2430   24.9540 C   0  0  0  0  0  0  0  0  0  0  0  0
  -10.7924    3.9358   23.8977 C   0  0  0  0  0  0  0  0  0  0  0  0
  -11.5184    4.4099   22.7978 C   0  0  0  0  0  0  0  0  0  0  0  0
  -11.7994    3.4797   21.8134 C   0  0  0  0  0  0  0  0  0  0  0  0
  -10.7061    1.9024   22.9373 C   0  0  0  0  0  0  0  0  0  0  0  0
  -11.3614    2.2601   21.8705 C   0  0  0  0  0  0  0  0  0  0  0  0
   -8.3912    7.1851   26.9803 C   0  0  0  0  0  0  0  0  0  0  0  0
   -5.5284    0.2018   28.1209 C   0  0  0  0  0  0  0  0  0  0  0  0
   -6.0549   -1.0083   28.2915 C   0  0  0  0  0  0  0  0  0  0  0  0
   -4.2055    0.4048   28.7821 C   0  0  0  0  0  0  0  0  0  0  0  0
   -3.6398   -0.4147   29.7501 C   0  0  0  0  0  0  0  0  0  0  0  0
   -5.4785   -1.9484   29.2616 C   0  0  0  0  0  0  0  0  0  0  0  0
   -4.2411   -1.6210   29.9479 C   0  0  0  0  0  0  0  0  0  0  0  0
   -3.6771   -2.5876   30.8992 C   0  0  0  0  0  0  0  0  0  0  0  0
   -2.6028   -2.4874   31.1630 C   0  0  0  0  0  0  0  0  0  0  0  0
   -1.8999   -3.3363   32.1685 C   0  0  0  0  0  0  0  0  0  0  0  0
   -0.5699   -3.0373   32.6214 C   0  0  0  0  0  0  0  0  0  0  0  0
    0.1297   -2.0817   31.9931 C   0  0  0  0  0  0  0  0  0  0  0  0
   -0.3988   -1.3571   30.9369 C   0  0  0  0  0  0  0  0  0  0  0  0
   -1.6429   -1.4791   30.6357 C   0  0  0  0  0  0  0  0  0  0  0  0
   -2.3098   -0.4327   29.8764 N   0  0  0  0  0  0  0  0  0  0  0  0
   -9.4550    6.7399   26.1438 C   0  0  0  0  0  0  0  0  0  0  0  0
   -9.6266    5.4817   26.0762 C   0  0  0  0  0  0  0  0  0  0  0  0
   -9.2571    4.6501   27.6809 F   0  0  0  0  0  0  0  0  0  0  0  0
  -10.6178    4.5291   25.6468 C   0  0  0  0  0  0  0  0  0  0  0  0
   -8.4398    4.9961   25.2739 F   0  0  0  0  0  0  0  0  0  0  0  0
  -11.4481    2.3737   26.7674 C   0  0  0  0  0  0  0  0  0  0  0  0
  -11.8617    4.8582   26.1229 O   0  0  0  0  0  0  0  0  0  0  0  0
  1  2  1  0
  2  3  2  3
  4  1  1  6
  4  5  1  0
  4  6  1  0
  6  7  2  0
  7  8  1  0
  5 10  2  3
  5 11  1  0
  8 12  1  6
 11 12  1  0
  3 18  1  0
 10 19  1  0
 18 33  2  3
 33 34  1  0
  2 35  1  0
 13 36  1  0
 34 36  2  3
 34 37  1  0
  7 38  1  0
 36 39  1  0
  8  9  1  0
 26 27  1  0
 27 28  2  0
 28 29  1  0
 29 30  2  0
 30 31  1  0
 19 20  2  0
 20 23  1  0
 23 24  2  0
 22 21  2  0
 21 19  1  0
 22 24  1  0
 24 25  1  0
 25 26  2  0
 26 31  1  0
 31 32  2  0
 32 22  1  0
  9 13  2  0
 13 14  1  0
 14 15  2  0
 15 17  1  0
 17 16  2  0
 16  9  1  0
M  END
$$$$
