No_6716-complexes_sdf/6BKW-FPZ/2024-09-17-14-21-01/
     RDKit          3D

 26 28  0  0  0  0  0  0  0  0999 V2000
   -7.2496    3.8871   27.4508 C   0  0  0  0  0  0  0  0  0  0  0  0
   -7.6161    2.7143   27.1523 C   0  0  0  0  0  0  0  0  0  0  0  0
   -8.8302    2.4659   26.5056 C   0  0  0  0  0  0  0  0  0  0  0  0
   -8.1584    5.0090   27.3234 C   0  0  0  0  0  0  0  0  0  0  0  0
   -9.3788    4.7965   26.7695 C   0  0  0  0  0  0  0  0  0  0  0  0
   -9.7028    3.5649   26.3276 C   0  0  0  0  0  0  0  0  0  0  0  0
   -6.7190    1.5585   27.3667 C   0  0  0  0  0  0  0  0  0  0  0  0
   -6.9908    0.5234   27.4317 F   0  0  0  0  0  0  0  0  0  0  0  0
   -5.4324    1.9073   27.6110 F   0  0  0  0  0  0  0  0  0  0  0  0
   -7.5478    6.1289   27.7412 F   0  0  0  0  0  0  0  0  0  0  0  0
  -11.0108    3.3844   25.6747 C   0  0  1  0  0  0  0  0  0  0  0  0
  -11.0588    3.5338   24.2204 C   0  0  0  0  0  0  0  0  0  0  0  0
  -10.1890    4.1486   23.6025 C   0  0  0  0  0  0  0  0  0  0  0  0
  -10.2817    4.4513   22.1825 C   0  0  0  0  0  0  0  0  0  0  0  0
  -11.4543    4.1013   21.5720 C   0  0  0  0  0  0  0  0  0  0  0  0
  -12.2904    3.3078   23.5817 C   0  0  0  0  0  0  0  0  0  0  0  0
  -12.4742    3.5464   22.2758 C   0  0  0  0  0  0  0  0  0  0  0  0
  -12.0760    3.0323   26.5160 C   0  0  0  0  0  0  0  0  0  0  0  0
  -12.1092    2.8296   27.6660 N   0  0  0  0  0  0  0  0  0  0  0  0
  -11.3766    3.1791   28.5773 C   0  0  0  0  0  0  0  0  0  0  0  0
  -13.2318    1.8856   28.1153 C   0  0  0  0  0  0  0  0  0  0  0  0
  -13.0648    0.6455   28.1459 C   0  0  0  0  0  0  0  0  0  0  0  0
  -13.8755   -0.1549   28.4741 C   0  0  0  0  0  0  0  0  0  0  0  0
  -15.1123    0.2465   29.0475 C   0  0  0  0  0  0  0  0  0  0  0  0
  -14.3288    2.5147   28.6943 C   0  0  0  0  0  0  0  0  0  0  0  0
  -15.3276    1.6328   29.1524 C   0  0  0  0  0  0  0  0  0  0  0  0
  2  7  1  0
  7  8  1  0
  7  9  1  0
  4 10  1  0
  6 11  1  0
 11 12  1  0
 11 18  1  6
 18 19  1  0
 19 20  1  0
 19 21  1  0
 12 13  2  0
 13 14  1  0
 14 15  2  0
 15 17  1  0
 17 16  2  0
 16 12  1  0
 21 22  2  0
 22 23  1  0
 23 24  2  0
 24 26  1  0
 26 25  2  0
 25 21  1  0
  1  2  2  0
  2  3  1  0
  3  6  2  0
  6  5  1  0
  5  4  2  0
  4  1  1  0
M  END
$$$$
