No_6551-complexes_sdf/6BKW-FPZ/2024-09-17-14-21-01/
     RDKit          3D

 40 46  0  0  0  0  0  0  0  0999 V2000
   -7.7129    4.2099   27.0854 C   0  0  0  0  0  0  0  0  0  0  0  0
   -7.7814    5.1722   27.8972 C   0  0  0  0  0  0  0  0  0  0  0  0
   -8.8998    3.8713   26.3707 C   0  0  0  0  0  0  0  0  0  0  0  0
   -8.9563    2.6796   25.5490 C   0  0  0  0  0  0  0  0  0  0  0  0
   -8.8131    6.1334   27.9344 C   0  0  0  0  0  0  0  0  0  0  0  0
   -9.9804    5.8121   27.1929 C   0  0  0  0  0  0  0  0  0  0  0  0
   -9.9861    4.6836   26.4532 C   0  0  0  0  0  0  0  0  0  0  0  0
   -8.3357    1.4961   26.0703 C   0  0  0  0  0  0  0  0  0  0  0  0
   -8.3882    0.2953   25.3902 C   0  0  0  0  0  0  0  0  0  0  0  0
   -9.0085    0.3271   24.1355 C   0  0  0  0  0  0  0  0  0  0  0  0
   -9.5936    1.4698   23.6030 C   0  0  0  0  0  0  0  0  0  0  0  0
   -9.5290    2.6254   24.3242 C   0  0  0  0  0  0  0  0  0  0  0  0
  -10.2086    1.4433   22.2854 C   0  0  0  0  0  0  0  0  0  0  0  0
  -10.3909    2.5835   21.6612 C   0  0  0  0  0  0  0  0  0  0  0  0
  -11.0077    2.6309   20.4201 C   0  0  0  0  0  0  0  0  0  0  0  0
  -11.3632    1.4620   19.7509 C   0  0  0  0  0  0  0  0  0  0  0  0
  -11.1006    0.2391   20.3915 C   0  0  0  0  0  0  0  0  0  0  0  0
  -10.5339    0.2408   21.6430 C   0  0  0  0  0  0  0  0  0  0  0  0
   -6.7022    5.5669   28.6466 F   0  0  0  0  0  0  0  0  0  0  0  0
   -7.7287   -0.8577   25.9063 C   0  0  0  0  0  0  0  0  0  0  0  0
   -7.3243   -1.7582   25.2881 C   0  0  0  0  0  0  0  0  0  0  0  0
   -6.7566   -3.0127   25.8061 C   0  0  0  0  0  0  0  0  0  0  0  0
   -6.5709   -3.0672   27.1866 C   0  0  0  0  0  0  0  0  0  0  0  0
   -6.0558   -4.1740   27.8309 C   0  0  0  0  0  0  0  0  0  0  0  0
   -7.5599   -0.8814   27.3999 C   0  0  0  0  0  0  0  0  0  0  0  0
   -7.0145   -1.9850   27.9729 C   0  0  0  0  0  0  0  0  0  0  0  0
   -5.2046   -4.9077   27.4258 C   0  0  0  0  0  0  0  0  0  0  0  0
   -4.4405   -5.6053   27.5931 C   0  0  0  0  0  0  0  0  0  0  0  0
   -3.4753   -6.2558   26.7273 C   0  0  0  0  0  0  0  0  0  0  0  0
   -3.6043   -5.9124   25.3618 C   0  0  0  0  0  0  0  0  0  0  0  0
   -4.5158   -5.0105   25.0005 C   0  0  0  0  0  0  0  0  0  0  0  0
   -5.2952   -4.4194   25.9032 C   0  0  0  0  0  0  0  0  0  0  0  0
   -6.1635   -3.3391   25.6410 N   0  0  0  0  0  0  0  0  0  0  0  0
   -6.5128   -4.3921   29.2592 C   0  0  0  0  0  0  0  0  0  0  0  0
   -7.8623   -4.5879   29.5438 C   0  0  0  0  0  0  0  0  0  0  0  0
   -8.2465   -4.8334   30.8680 C   0  0  0  0  0  0  0  0  0  0  0  0
   -7.3034   -4.8525   31.9039 C   0  0  0  0  0  0  0  0  0  0  0  0
   -5.5860   -4.3560   30.3863 C   0  0  0  0  0  0  0  0  0  0  0  0
   -5.9689   -4.5909   31.6351 C   0  0  0  0  0  0  0  0  0  0  0  0
  -11.4924   -1.2675   19.6572 Cl  0  0  0  0  0  0  0  0  0  0  0  0
  3  4  1  0
 11 13  1  0
  2 19  1  0
  9 20  1  0
 24 34  1  0
 17 40  1  0
 23 24  2  0
 24 27  1  0
 32 33  1  0
 33 22  2  0
  1  2  2  0
  2  5  1  0
  5  6  2  0
  6  7  1  0
  7  3  2  0
  3  1  1  0
  4  8  2  0
  8  9  1  0
  9 10  2  0
 10 11  1  0
 11 12  2  0
 12  4  1  0
 27 28  2  0
 28 29  1  0
 29 30  2  0
 30 31  1  0
 31 32  2  0
 32 27  1  0
 13 14  2  0
 14 15  1  0
 15 16  2  0
 16 17  1  0
 17 18  2  0
 18 13  1  0
 20 21  2  0
 21 22  1  0
 22 23  1  0
 23 26  1  0
 26 25  2  0
 25 20  1  0
 34 35  2  0
 35 36  1  0
 36 37  2  0
 37 39  1  0
 39 38  2  0
 38 34  1  0
M  END
$$$$
