No_6493-complexes_sdf/6BKW-FPZ/2024-09-17-14-21-01/
     RDKit          3D

 11 11  0  0  0  0  0  0  0  0999 V2000
   -7.7129    4.2099   27.0854 C   0  0  0  0  0  0  0  0  0  0  0  0
   -8.2112    3.0637   26.9225 C   0  0  0  0  0  0  0  0  0  0  0  0
   -9.4446    2.8304   26.1868 C   0  0  0  0  0  0  0  0  0  0  0  0
   -8.4697    5.3956   26.7238 C   0  0  0  0  0  0  0  0  0  0  0  0
   -9.6172    5.2111   25.9513 C   0  0  0  0  0  0  0  0  0  0  0  0
  -10.0424    3.9782   25.6873 C   0  0  0  0  0  0  0  0  0  0  0  0
   -7.5594    1.9037   27.3886 N   0  0  0  0  0  0  0  0  0  0  0  0
   -6.2383    1.9002   27.7036 C   0  0  0  0  0  0  0  0  0  0  0  0
   -5.6534    0.6371   28.1135 C   0  0  0  0  0  0  0  0  0  0  0  0
   -8.2438    0.7062   27.7106 C   0  0  0  0  0  0  0  0  0  0  0  0
   -4.2501    0.6537   28.4710 C   0  0  0  0  0  0  0  0  0  0  0  0
  2  7  1  0
  7  8  1  0
  8  9  2  3
  7 10  1  0
  9 11  1  0
  1  2  2  0
  2  3  1  0
  3  6  2  0
  6  5  1  0
  5  4  2  0
  4  1  1  0
M  END
$$$$
