No_6915-complexes_sdf/6BKW-FPZ/2024-09-17-14-21-01/
     RDKit          3D

 14 15  0  0  0  0  0  0  0  0999 V2000
   -7.7129    4.2099   27.0854 C   0  0  0  0  0  0  0  0  0  0  0  0
   -8.2112    3.0637   26.9225 C   0  0  0  0  0  0  0  0  0  0  0  0
   -9.4446    2.8304   26.1868 C   0  0  0  0  0  0  0  0  0  0  0  0
   -8.4697    5.3956   26.7238 C   0  0  0  0  0  0  0  0  0  0  0  0
   -9.6172    5.2111   25.9513 C   0  0  0  0  0  0  0  0  0  0  0  0
  -10.0424    3.9782   25.6873 C   0  0  0  0  0  0  0  0  0  0  0  0
   -7.7142    1.7268   27.3793 C   0  0  0  0  0  0  0  0  0  0  0  0
   -7.0696    0.8698   26.6118 C   0  0  0  0  0  0  0  0  0  0  0  0
   -6.4859   -0.2804   27.1758 C   0  0  0  0  0  0  0  0  0  0  0  0
   -6.7150   -1.3361   27.0529 C   0  0  0  0  0  0  0  0  0  0  0  0
   -5.9827   -2.5072   27.6477 C   0  0  0  0  0  0  0  0  0  0  0  0
   -4.8637   -2.2090   28.3970 C   0  0  0  0  0  0  0  0  0  0  0  0
   -4.4862   -0.8649   28.5811 C   0  0  0  0  0  0  0  0  0  0  0  0
   -5.2832    0.1530   27.9870 C   0  0  0  0  0  0  0  0  0  0  0  0
  2  7  1  0
  7  8  2  3
  8  9  1  0
  1  2  2  0
  2  3  1  0
  3  6  2  0
  6  5  1  0
  5  4  2  0
  4  1  1  0
  9 10  2  0
 10 11  1  0
 11 12  2  0
 12 13  1  0
 13 14  2  0
 14  9  1  0
M  END
$$$$
