No_6125-complexes_sdf/6BKW-FPZ/2024-09-17-14-21-01/
     RDKit          3D

  9  9  0  0  0  0  0  0  0  0999 V2000
   -7.9040    3.9820   27.1177 C   0  0  0  0  0  0  0  0  0  0  0  0
   -7.8663    4.8694   27.9238 C   0  0  0  0  0  0  0  0  0  0  0  0
   -9.0806    3.1428   27.1220 C   0  0  0  0  0  0  0  0  0  0  0  0
   -8.9544    1.8782   26.5468 C   0  0  0  0  0  0  0  0  0  0  0  0
   -8.6768    5.7201   28.0922 N   0  0  0  0  0  0  0  0  0  0  0  0
  -10.0298    5.2898   27.8931 C   0  0  0  0  0  0  0  0  0  0  0  0
  -10.1983    3.8924   27.4137 C   0  0  0  0  0  0  0  0  0  0  0  0
   -9.5505    0.8273   27.1437 C   0  0  0  0  0  0  0  0  0  0  0  0
  -10.4810    1.0504   28.2320 C   0  0  0  0  0  0  0  0  0  0  0  0
  1  2  1  0
  1  3  1  0
  3  4  2  3
  2  5  1  0
  5  6  1  0
  3  7  1  0
  6  7  1  0
  4  8  1  0
  8  9  1  0
M  END
$$$$
