No_6429-complexes_sdf/6BKW-FPZ/2024-09-17-14-21-01/
     RDKit          3D

 29 31  0  0  0  0  0  0  0  0999 V2000
   -7.9040    3.9820   27.1177 C   0  0  0  0  0  0  0  0  0  0  0  0
   -7.8663    4.8694   27.9238 C   0  0  0  0  0  0  0  0  0  0  0  0
   -9.0491    3.8523   26.2542 C   0  0  0  0  0  0  0  0  0  0  0  0
   -8.7661    5.9491   27.9690 C   0  0  0  0  0  0  0  0  0  0  0  0
   -9.9295    4.8502   26.2323 C   0  0  0  0  0  0  0  0  0  0  0  0
   -9.8077    5.9288   27.0933 C   0  0  0  0  0  0  0  0  0  0  0  0
   -9.0726    2.7074   25.3087 C   0  0  0  0  0  0  0  0  0  0  0  0
   -9.9621    1.9622   25.4415 N   0  0  0  0  0  0  0  0  0  0  0  0
  -10.0591    0.8290   24.8895 C   0  0  0  0  0  0  0  0  0  0  0  0
   -9.1797    0.4141   24.1223 C   0  0  0  0  0  0  0  0  0  0  0  0
  -11.0611    0.0007   24.9989 F   0  0  0  0  0  0  0  0  0  0  0  0
   -9.2323   -0.5894   23.3329 C   0  0  0  0  0  0  0  0  0  0  0  0
  -10.7894    1.9709   26.7358 C   0  0  0  0  0  0  0  0  0  0  0  0
  -12.0386    2.4803   26.6958 C   0  0  0  0  0  0  0  0  0  0  0  0
  -12.5793    2.9872   25.9619 C   0  0  0  0  0  0  0  0  0  0  0  0
  -13.9213    3.5582   25.9739 C   0  0  0  0  0  0  0  0  0  0  0  0
  -14.6077    3.4342   27.1620 C   0  0  0  0  0  0  0  0  0  0  0  0
  -13.9720    2.7079   28.1947 C   0  0  0  0  0  0  0  0  0  0  0  0
  -12.7142    2.2238   28.1057 C   0  0  0  0  0  0  0  0  0  0  0  0
  -10.1500    1.4848   27.7522 O   0  0  0  0  0  0  0  0  0  0  0  0
   -8.1455   -0.9057   22.4031 C   0  0  0  0  0  0  0  0  0  0  0  0
   -6.8771   -0.2843   22.6331 C   0  0  0  0  0  0  0  0  0  0  0  0
   -6.7479    0.5745   23.6965 C   0  0  0  0  0  0  0  0  0  0  0  0
   -7.7679    0.9170   24.4148 C   0  0  0  0  0  0  0  0  0  0  0  0
   -8.2625   -1.8932   21.3442 C   0  0  0  0  0  0  0  0  0  0  0  0
   -9.2168   -1.8066   20.4027 C   0  0  0  0  0  0  0  0  0  0  0  0
   -9.3175   -2.6981   19.2872 C   0  0  0  0  0  0  0  0  0  0  0  0
  -10.3969   -2.5838   18.4171 C   0  0  0  0  0  0  0  0  0  0  0  0
  -10.4863   -3.4588   17.3074 C   0  0  0  0  0  0  0  0  0  0  0  0
  3  7  1  0
  7  8  1  0
  8  9  1  0
  9 10  1  0
  9 11  1  0
  8 13  1  0
 13 14  1  0
 13 20  2  0
 21 25  1  0
 25 26  2  3
 26 27  1  0
 27 28  2  3
 28 29  1  0
 14 15  2  0
 15 16  1  0
 16 17  2  0
 17 18  1  0
 18 19  2  0
 19 14  1  0
  1  2  2  0
  2  4  1  0
  4  6  2  0
  6  5  1  0
  5  3  2  0
  3  1  1  0
 10 12  2  0
 12 21  1  0
 21 22  2  0
 22 23  1  0
 23 24  2  0
 24 10  1  0
M  END
$$$$
