No_6331-complexes_sdf/6BKW-FPZ/2024-09-17-14-21-01/
     RDKit          3D

 25 27  0  0  0  0  0  0  0  0999 V2000
   -7.9040    3.9820   27.1177 C   0  0  0  0  0  0  0  0  0  0  0  0
   -7.8663    4.8694   27.9238 C   0  0  0  0  0  0  0  0  0  0  0  0
   -9.0806    3.1428   27.1220 C   0  0  2  0  0  0  0  0  0  0  0  0
   -8.9544    1.8782   26.5467 C   0  0  0  0  0  0  0  0  0  0  0  0
   -8.5076    6.0545   27.5968 C   0  0  0  0  0  0  0  0  0  0  0  0
   -9.9663    1.1418   26.2860 C   0  0  0  0  0  0  0  0  0  0  0  0
   -9.9346    5.8082   27.2945 C   0  0  0  0  0  0  0  0  0  0  0  0
  -10.1490    4.4113   27.2029 C   0  0  2  0  0  0  0  0  0  0  0  0
   -9.7678   -0.2103   25.8201 C   0  0  0  0  0  0  0  0  0  0  0  0
   -8.4868   -0.6598   25.6824 C   0  0  0  0  0  0  0  0  0  0  0  0
   -7.4062    0.0744   26.0109 C   0  0  0  0  0  0  0  0  0  0  0  0
   -7.5934    1.4018   26.5366 C   0  0  0  0  0  0  0  0  0  0  0  0
  -11.5771    3.8493   27.2805 C   0  0  0  0  0  0  0  0  0  0  0  0
  -12.3376    3.8590   26.2276 C   0  0  0  0  0  0  0  0  0  0  0  0
  -12.0336    3.3957   28.5745 C   0  0  0  0  0  0  0  0  0  0  0  0
  -13.3263    2.9859   28.8226 C   0  0  0  0  0  0  0  0  0  0  0  0
  -13.6880    3.4285   26.3483 C   0  0  0  0  0  0  0  0  0  0  0  0
  -13.7575    2.4886   30.0840 C   0  0  0  0  0  0  0  0  0  0  0  0
  -14.1290    2.9765   27.6485 C   0  0  0  0  0  0  0  0  0  0  0  0
  -15.1015    2.7025   30.2739 F   0  0  0  0  0  0  0  0  0  0  0  0
  -13.1596    3.1824   31.0791 F   0  0  0  0  0  0  0  0  0  0  0  0
  -13.4481    1.2023   30.2313 F   0  0  0  0  0  0  0  0  0  0  0  0
  -10.9300   -1.0201   25.4411 C   0  0  0  0  0  0  0  0  0  0  0  0
  -11.6980   -1.3753   26.2141 O   0  0  0  0  0  0  0  0  0  0  0  0
  -11.2124   -1.0384   24.0781 O   0  0  0  0  0  0  0  0  0  0  0  0
  1  2  1  0
  1  3  1  0
  3  4  1  6
  2  5  1  0
  5  7  1  0
  3  8  1  0
  7  8  1  0
  8 13  1  1
 16 18  1  0
 18 20  1  0
 18 21  1  0
 18 22  1  0
  9 23  1  0
 23 24  2  0
 23 25  1  0
 13 14  2  0
 14 17  1  0
 17 19  2  0
 19 16  1  0
 16 15  2  0
 15 13  1  0
  4  6  2  0
  6  9  1  0
  9 10  2  0
 10 11  1  0
 11 12  2  0
 12  4  1  0
M  END
$$$$
