No_6865-complexes_sdf/6BKW-FPZ/2024-09-17-14-21-01/
     RDKit          3D

 23 25  0  0  0  0  0  0  0  0999 V2000
   -7.9040    3.9820   27.1177 C   0  0  0  0  0  0  0  0  0  0  0  0
   -9.0711    4.3164   27.0630 C   0  0  1  0  0  0  0  0  0  0  0  0
   -9.5182    5.5541   27.5777 C   0  0  0  0  0  0  0  0  0  0  0  0
   -7.4468    2.6843   26.6499 C   0  0  0  0  0  0  0  0  0  0  0  0
   -6.3753    2.0179   27.3532 C   0  0  0  0  0  0  0  0  0  0  0  0
   -5.4479    2.9481   28.0075 C   0  0  0  0  0  0  0  0  0  0  0  0
   -5.8183    4.2318   28.2653 C   0  0  0  0  0  0  0  0  0  0  0  0
   -6.9974    4.7066   27.9419 C   0  0  0  0  0  0  0  0  0  0  0  0
  -10.0239    3.7357   26.1040 C   0  0  0  0  0  0  0  0  0  0  0  0
  -11.2333    3.2304   26.5504 C   0  0  0  0  0  0  0  0  0  0  0  0
  -11.4999    3.2372   27.9197 C   0  0  0  0  0  0  0  0  0  0  0  0
  -12.5498    2.6079   28.4763 C   0  0  0  0  0  0  0  0  0  0  0  0
  -12.7298    2.5771   29.9396 C   0  0  0  0  0  0  0  0  0  0  0  0
  -13.8888    2.8747   30.4949 C   0  0  0  0  0  0  0  0  0  0  0  0
  -14.0118    3.0664   31.8759 C   0  0  0  0  0  0  0  0  0  0  0  0
  -14.2251    3.8013   32.6750 C   0  0  0  0  0  0  0  0  0  0  0  0
  -14.0570    3.7731   34.1397 C   0  0  0  0  0  0  0  0  0  0  0  0
  -13.5083    2.5857   34.6007 C   0  0  0  0  0  0  0  0  0  0  0  0
  -13.2445    1.5857   33.7370 C   0  0  0  0  0  0  0  0  0  0  0  0
  -13.3150    1.7587   32.4535 C   0  0  0  0  0  0  0  0  0  0  0  0
  -14.9544    3.4690   29.7694 C   0  0  0  0  0  0  0  0  0  0  0  0
  -14.9620    3.2545   28.3955 C   0  0  0  0  0  0  0  0  0  0  0  0
  -13.6896    3.5316   28.0629 C   0  0  0  0  0  0  0  0  0  0  0  0
  2  3  1  6
  2  9  1  0
  9 10  2  3
 10 11  1  0
 14 15  1  0
 11 12  1  0
  2  1  1  0
 15 16  2  0
 16 17  1  0
 17 18  2  0
 18 19  1  0
 19 20  2  0
 20 15  1  0
 12 13  2  0
 13 14  1  0
 14 21  2  0
 21 22  1  0
 22 23  2  0
 23 12  1  0
  1  4  2  0
  4  5  1  0
  5  6  2  0
  6  7  1  0
  7  8  2  0
  8  1  1  0
M  END
$$$$
