No_6403-complexes_sdf/6BKW-FPZ/2024-09-17-14-21-01/
     RDKit          3D

 16 18  0  0  0  0  0  0  0  0999 V2000
   -7.9040    3.9820   27.1177 C   0  0  0  0  0  0  0  0  0  0  0  0
   -7.8663    4.8694   27.9238 C   0  0  0  0  0  0  0  0  0  0  0  0
   -9.0806    3.1428   27.1220 C   0  0  2  0  0  0  0  0  0  0  0  0
  -10.1072    3.3606   27.8219 C   0  0  2  0  0  0  0  0  0  0  0  0
   -8.9996    5.7432   28.2415 C   0  0  0  0  0  0  0  0  0  0  0  0
  -11.3571    2.6165   27.9398 C   0  0  0  0  0  0  0  0  0  0  0  0
  -10.1794    4.7444   28.4804 C   0  0  0  0  0  0  0  0  0  0  0  0
  -12.4011    3.0822   28.4745 C   0  0  0  0  0  0  0  0  0  0  0  0
  -11.1499    1.2300   27.7271 C   0  0  0  0  0  0  0  0  0  0  0  0
  -13.5429    2.2694   28.7556 C   0  0  0  0  0  0  0  0  0  0  0  0
  -12.2788    0.3634   27.9661 C   0  0  0  0  0  0  0  0  0  0  0  0
  -13.4254    0.9136   28.4912 C   0  0  0  0  0  0  0  0  0  0  0  0
   -8.8592    1.8085   26.6493 N   0  0  0  0  0  0  0  0  0  0  0  0
   -9.9298    0.8919   26.9246 C   0  0  0  0  0  0  0  0  0  0  0  0
   -9.7936   -0.3243   26.5651 O   0  0  0  0  0  0  0  0  0  0  0  0
   -6.7246    5.6253   28.2442 O   0  0  0  0  0  0  0  0  0  0  0  0
  1  2  1  0
  3  1  1  1
  3  4  1  0
  2  5  1  0
  4  6  1  0
  4  7  1  6
  5  7  1  0
  9 14  1  0
 13 14  1  0
 14 15  2  0
  2 16  2  0
  3 13  1  0
  6  8  2  0
  8 10  1  0
 10 12  2  0
 12 11  1  0
 11  9  2  0
  9  6  1  0
M  END
$$$$
