No_6908-complexes_sdf/6BKW-FPZ/2024-09-17-14-21-01/
     RDKit          3D

 19 21  0  0  0  0  0  0  0  0999 V2000
   -7.2496    3.8871   27.4508 C   0  0  0  0  0  0  0  0  0  0  0  0
   -7.6161    2.7143   27.1523 C   0  0  0  0  0  0  0  0  0  0  0  0
   -6.9719    1.5838   27.5324 C   0  0  0  0  0  0  0  0  0  0  0  0
   -7.4590    0.2827   27.2615 C   0  0  0  0  0  0  0  0  0  0  0  0
   -8.7521    2.5117   26.3068 C   0  0  0  0  0  0  0  0  0  0  0  0
   -9.5643    3.6334   25.9825 C   0  0  0  0  0  0  0  0  0  0  0  0
   -8.0314    5.1004   27.2112 C   0  0  0  0  0  0  0  0  0  0  0  0
   -9.1347    4.9790   26.3962 C   0  0  0  0  0  0  0  0  0  0  0  0
   -7.5224    6.6218   27.8079 Cl  0  0  0  0  0  0  0  0  0  0  0  0
   -6.7148   -0.8278   27.6292 C   0  0  0  0  0  0  0  0  0  0  0  0
   -5.4542   -0.6199   28.2077 C   0  0  0  0  0  0  0  0  0  0  0  0
   -4.8832    0.6201   28.3890 C   0  0  0  0  0  0  0  0  0  0  0  0
   -5.5972    1.6824   28.0453 C   0  0  0  0  0  0  0  0  0  0  0  0
  -10.6791    3.5501   25.0822 C   0  0  0  0  0  0  0  0  0  0  0  0
  -11.8962    3.3017   25.6131 C   0  0  0  0  0  0  0  0  0  0  0  0
  -10.5221    3.6588   23.6854 C   0  0  0  0  0  0  0  0  0  0  0  0
  -11.4576    3.6134   22.7273 C   0  0  0  0  0  0  0  0  0  0  0  0
  -13.0245    3.3236   24.6693 C   0  0  0  0  0  0  0  0  0  0  0  0
  -12.7966    3.4995   23.2927 C   0  0  0  0  0  0  0  0  0  0  0  0
  2  3  1  0
  7  9  1  0
  6 14  1  0
  3  4  2  0
  4 10  1  0
 10 11  2  0
 11 12  1  0
 12 13  2  0
 13  3  1  0
 14 15  2  0
 15 18  1  0
 18 19  2  0
 19 17  1  0
 17 16  2  0
 16 14  1  0
  1  2  2  0
  2  5  1  0
  5  6  2  0
  6  8  1  0
  8  7  2  0
  7  1  1  0
M  END
$$$$
