No_6713-complexes_sdf/6BKW-FPZ/2024-09-17-14-21-01/
     RDKit          3D

 22 22  0  0  0  0  0  0  0  0999 V2000
   -7.9040    3.9820   27.1177 C   0  0  0  0  0  0  0  0  0  0  0  0
   -8.2057    2.8231   26.8733 C   0  0  0  0  0  0  0  0  0  0  0  0
   -9.2962    2.4021   26.1155 C   0  0  0  0  0  0  0  0  0  0  0  0
   -8.7358    5.0662   26.5917 C   0  0  0  0  0  0  0  0  0  0  0  0
   -9.7618    4.7023   25.7546 C   0  0  0  0  0  0  0  0  0  0  0  0
  -10.0066    3.4105   25.4922 C   0  0  0  0  0  0  0  0  0  0  0  0
   -8.3936    6.4769   26.8843 C   0  0  0  0  0  0  0  0  0  0  0  0
   -8.6493    6.7879   28.0308 F   0  0  0  0  0  0  0  0  0  0  0  0
   -7.0512    6.6926   26.7340 F   0  0  0  0  0  0  0  0  0  0  0  0
   -8.9422    7.2996   25.9424 F   0  0  0  0  0  0  0  0  0  0  0  0
   -7.2222    1.5047   27.6138 Cl  0  0  0  0  0  0  0  0  0  0  0  0
  -11.0638    3.3003   24.5081 C   0  0  2  0  0  0  0  0  0  0  0  0
  -12.2005    2.7335   24.8503 C   0  0  0  0  0  0  0  0  0  0  0  0
  -13.2482    2.6423   23.9815 C   0  0  0  0  0  0  0  0  0  0  0  0
  -10.8083    3.6371   23.1824 C   0  0  0  0  0  0  0  0  0  0  0  0
  -11.7385    3.6208   22.2132 C   0  0  0  0  0  0  0  0  0  0  0  0
  -12.9950    3.0902   22.6153 C   0  0  0  0  0  0  0  0  0  0  0  0
  -14.5724    2.1526   24.2846 C   0  0  0  0  0  0  0  0  0  0  0  0
  -12.4294    2.6458   24.5874 Br  0  0  0  0  0  0  0  0  0  0  0  0
  -13.9090    3.1448   22.5676 C   0  0  0  0  0  0  0  0  0  0  0  0
  -14.1521    2.8418   23.4903 F   0  0  0  0  0  0  0  0  0  0  0  0
  -13.3974    1.6252   23.5203 F   0  0  0  0  0  0  0  0  0  0  0  0
  4  7  1  0
  7  8  1  0
  7  9  1  0
  7 10  1  0
  2 11  1  0
 12  6  1  6
 12 13  1  0
 13 14  2  3
 12 15  1  0
 15 16  2  3
 16 17  1  0
 14 18  1  0
 13 19  1  0
 17 20  2  3
 20 21  1  0
 14 22  1  0
  1  2  2  0
  2  3  1  0
  3  6  2  0
  6  5  1  0
  5  4  2  0
  4  1  1  0
M  END
$$$$
