No_6055-complexes_sdf/6BKW-FPZ/2024-09-17-14-21-01/
     RDKit          3D

 25 28  0  0  0  0  0  0  0  0999 V2000
   -7.2496    3.8871   27.4508 C   0  0  0  0  0  0  0  0  0  0  0  0
   -7.9379    4.9063   27.8518 C   0  0  0  0  0  0  0  0  0  0  0  0
   -7.5112    6.1898   27.6280 C   0  0  0  0  0  0  0  0  0  0  0  0
   -7.8078    2.6331   27.2522 C   0  0  0  0  0  0  0  0  0  0  0  0
   -9.1846    2.4724   27.5426 C   0  0  0  0  0  0  0  0  0  0  0  0
   -9.8869    3.5177   28.0783 C   0  0  0  0  0  0  0  0  0  0  0  0
   -9.3786    4.7757   28.1464 C   0  0  0  0  0  0  0  0  0  0  0  0
  -11.3170    3.2078   28.4137 C   0  0  0  0  0  0  0  0  0  0  0  0
  -11.7799    1.9837   28.7150 C   0  0  0  0  0  0  0  0  0  0  0  0
  -13.0974    1.7478   29.1129 C   0  0  0  0  0  0  0  0  0  0  0  0
  -13.9295    2.8694   29.3162 C   0  0  0  0  0  0  0  0  0  0  0  0
  -13.5169    4.1430   29.0107 C   0  0  0  0  0  0  0  0  0  0  0  0
  -12.2018    4.3623   28.6060 C   0  0  0  0  0  0  0  0  0  0  0  0
   -7.0406    1.4448   26.8685 C   0  0  0  0  0  0  0  0  0  0  0  0
   -5.9425    0.9868   27.6922 C   0  0  0  0  0  0  0  0  0  0  0  0
   -5.2251   -0.1638   27.4823 C   0  0  0  0  0  0  0  0  0  0  0  0
   -5.7066   -0.9495   26.4279 C   0  0  0  0  0  0  0  0  0  0  0  0
   -7.3978    0.6549   25.8467 C   0  0  0  0  0  0  0  0  0  0  0  0
   -6.7675   -0.5525   25.6213 C   0  0  0  0  0  0  0  0  0  0  0  0
   -4.1238   -0.5553   28.3436 C   0  0  0  0  0  0  0  0  0  0  0  0
   -3.0177   -0.4294   28.0056 C   0  0  0  0  0  0  0  0  0  0  0  0
   -4.4772   -0.9807   29.7159 C   0  0  0  0  0  0  0  0  0  0  0  0
   -3.4659   -1.2515   30.6690 C   0  0  0  0  0  0  0  0  0  0  0  0
   -1.8349   -0.7356   28.9469 C   0  0  0  0  0  0  0  0  0  0  0  0
   -2.1423   -1.1095   30.2410 C   0  0  0  0  0  0  0  0  0  0  0  0
  6  8  1  0
  4 14  1  0
 16 20  1  0
  3  2  1  0
 20 21  2  0
 21 24  1  0
 24 25  2  0
 25 23  1  0
 23 22  2  0
 22 20  1  0
 14 15  2  0
 15 16  1  0
 16 17  2  0
 17 19  1  0
 19 18  2  0
 18 14  1  0
  1  2  2  0
  2  7  1  0
  7  6  2  0
  6  5  1  0
  5  4  2  0
  4  1  1  0
  8  9  2  0
  9 10  1  0
 10 11  2  0
 11 12  1  0
 12 13  2  0
 13  8  1  0
M  END
$$$$
