No_6627-complexes_sdf/6BKW-FPZ/2024-09-17-14-21-01/
     RDKit          3D

 22 24  0  0  0  0  0  0  0  0999 V2000
   -7.7129    4.2099   27.0854 C   0  0  0  0  0  0  0  0  0  0  0  0
   -8.2112    3.0637   26.9225 C   0  0  0  0  0  0  0  0  0  0  0  0
   -7.0021    4.5281   28.2396 C   0  0  0  0  0  0  0  0  0  0  0  0
   -9.4237    2.7810   26.2714 C   0  0  0  0  0  0  0  0  0  0  0  0
   -9.8781    3.7859   25.4663 C   0  0  0  0  0  0  0  0  0  0  0  0
   -9.3689    5.0975   25.5965 C   0  0  0  0  0  0  0  0  0  0  0  0
   -8.4784    5.3402   26.5448 C   0  0  0  0  0  0  0  0  0  0  0  0
  -10.9887    3.5347   24.5135 C   0  0  0  0  0  0  0  0  0  0  0  0
  -12.1661    3.1796   24.9300 C   0  0  0  0  0  0  0  0  0  0  0  0
  -10.7292    3.7017   23.1279 C   0  0  0  0  0  0  0  0  0  0  0  0
  -11.5970    3.5024   22.1235 C   0  0  0  0  0  0  0  0  0  0  0  0
  -13.2094    2.9510   23.9353 C   0  0  0  0  0  0  0  0  0  0  0  0
  -12.9029    3.1460   22.5950 C   0  0  0  0  0  0  0  0  0  0  0  0
   -7.5312    2.0932   27.7235 N   0  0  0  0  0  0  0  0  0  0  0  0
   -7.6853    0.7198   27.4892 C   0  0  0  0  0  0  0  0  0  0  0  0
   -6.7763   -0.1349   27.6002 C   0  0  0  0  0  0  0  0  0  0  0  0
   -5.3693    0.3321   27.8463 C   0  0  0  0  0  0  0  0  0  0  0  0
   -4.2984   -0.5406   28.1157 C   0  0  0  0  0  0  0  0  0  0  0  0
   -4.5459   -1.7814   28.1499 C   0  0  0  0  0  0  0  0  0  0  0  0
   -6.7149   -1.5430   27.6436 C   0  0  0  0  0  0  0  0  0  0  0  0
   -8.0995   -2.0869   27.3818 C   0  0  0  0  0  0  0  0  0  0  0  0
   -5.7305   -2.3270   27.9342 C   0  0  0  0  0  0  0  0  0  0  0  0
  5  8  1  0
  2 14  1  0
 14 15  1  0
 20 21  1  0
  3  1  1  0
 15 16  1  0
 16 17  2  0
 17 18  1  0
 18 19  2  0
 19 22  1  0
 22 20  2  0
 20 16  1  0
  8  9  2  0
  9 12  1  0
 12 13  2  0
 13 11  1  0
 11 10  2  0
 10  8  1  0
  1  2  2  0
  2  4  1  0
  4  5  2  0
  5  6  1  0
  6  7  2  0
  7  1  1  0
M  END
$$$$
