No_6488-complexes_sdf/6BKW-FPZ/2024-09-17-14-21-01/
     RDKit          3D

  9  9  0  0  0  0  0  0  0  0999 V2000
   -7.2496    3.8871   27.4508 C   0  0  0  0  0  0  0  0  0  0  0  0
   -8.5096    4.0291   27.2770 C   0  0  0  0  0  0  0  0  0  0  0  0
   -9.2669    5.1645   27.5845 C   0  0  0  0  0  0  0  0  0  0  0  0
   -8.4566    6.3212   27.8001 C   0  0  0  0  0  0  0  0  0  0  0  0
   -6.4744    5.0029   27.8552 C   0  0  0  0  0  0  0  0  0  0  0  0
   -7.1338    6.2312   27.9553 C   0  0  0  0  0  0  0  0  0  0  0  0
   -9.3555    2.7607   27.0105 C   0  0  0  0  0  0  0  0  0  0  0  0
  -10.6509    2.7396   27.1787 C   0  0  0  0  0  0  0  0  0  0  0  0
  -11.3933    1.5540   26.9423 C   0  0  0  0  0  0  0  0  0  0  0  0
  2  7  1  0
  7  8  2  3
  8  9  1  0
  1  2  2  0
  2  3  1  0
  3  4  2  0
  4  6  1  0
  6  5  2  0
  5  1  1  0
M  END
$$$$
