No_6934-complexes_sdf/6BKW-FPZ/2024-09-17-14-21-01/
     RDKit          3D

 36 40  0  0  0  0  0  0  0  0999 V2000
   -7.9040    3.9820   27.1177 C   0  0  0  0  0  0  0  0  0  0  0  0
   -7.8663    4.8694   27.9238 C   0  0  0  0  0  0  0  0  0  0  0  0
   -9.0491    3.8523   26.2542 C   0  0  0  0  0  0  0  0  0  0  0  0
   -8.7661    5.9491   27.9690 C   0  0  0  0  0  0  0  0  0  0  0  0
   -9.9295    4.8502   26.2323 C   0  0  0  0  0  0  0  0  0  0  0  0
   -9.8077    5.9288   27.0933 C   0  0  0  0  0  0  0  0  0  0  0  0
   -7.1473    2.8227   27.0397 N   0  0  0  0  0  0  0  0  0  0  0  0
   -7.3045    1.6003   27.3809 C   0  0  0  0  0  0  0  0  0  0  0  0
   -6.2837    0.6903   27.4485 C   0  0  0  0  0  0  0  0  0  0  0  0
   -6.3051   -0.5751   27.0332 C   0  0  0  0  0  0  0  0  0  0  0  0
   -8.5936    1.0282   27.2668 C   0  0  0  0  0  0  0  0  0  0  0  0
   -8.7594   -0.3361   27.2554 C   0  0  0  0  0  0  0  0  0  0  0  0
  -10.0583   -0.8925   27.3232 C   0  0  0  0  0  0  0  0  0  0  0  0
   -7.6289   -1.1399   27.2166 C   0  0  0  0  0  0  0  0  0  0  0  0
  -10.3356   -1.9147   27.5483 C   0  0  0  0  0  0  0  0  0  0  0  0
  -11.6830   -2.4426   27.7047 C   0  0  0  0  0  0  0  0  0  0  0  0
  -12.7230   -1.5276   27.5293 C   0  0  0  0  0  0  0  0  0  0  0  0
  -12.4552   -0.2338   27.3009 C   0  0  0  0  0  0  0  0  0  0  0  0
  -11.1596    0.2003   27.2599 C   0  0  0  0  0  0  0  0  0  0  0  0
   -9.1949    2.6052   25.0945 Cl  0  0  0  0  0  0  0  0  0  0  0  0
  -13.9876   -2.0020   27.6112 F   0  0  0  0  0  0  0  0  0  0  0  0
  -13.4944    0.6625   27.2590 O   0  0  0  0  0  0  0  0  0  0  0  0
  -13.5543    1.5125   26.3366 C   0  0  0  0  0  0  0  0  0  0  0  0
  -13.4396    2.8246   26.7541 C   0  0  0  0  0  0  0  0  0  0  0  0
  -13.5005    3.8852   25.7185 C   0  0  0  0  0  0  0  0  0  0  0  0
  -13.5200    3.5966   24.3793 C   0  0  0  0  0  0  0  0  0  0  0  0
  -13.5674    1.2132   24.9903 C   0  0  0  0  0  0  0  0  0  0  0  0
  -13.5494    4.5640   23.3455 C   0  0  0  0  0  0  0  0  0  0  0  0
  -13.5697    2.2526   24.0446 C   0  0  0  0  0  0  0  0  0  0  0  0
  -13.2217    4.6186   22.3186 C   0  0  0  0  0  0  0  0  0  0  0  0
  -12.3336    3.6273   21.8285 C   0  0  0  0  0  0  0  0  0  0  0  0
  -12.5788    2.2675   21.8465 C   0  0  0  0  0  0  0  0  0  0  0  0
  -12.9993    1.7737   22.7762 C   0  0  0  0  0  0  0  0  0  0  0  0
  -13.4873    3.2806   28.1749 C   0  0  0  0  0  0  0  0  0  0  0  0
  -12.4035    3.0952   28.9706 C   0  0  0  0  0  0  0  0  0  0  0  0
  -12.4752    3.5313   30.3883 C   0  0  0  0  0  0  0  0  0  0  0  0
  1  7  1  0
  7  8  1  0
 12 13  1  0
  3 20  1  0
 17 21  1  0
 18 22  1  0
 22 23  1  0
 26 28  1  0
 28 30  2  0
 30 31  1  0
 31 32  2  0
 29 33  1  0
 32 33  1  0
 24 34  1  0
 34 35  2  3
 35 36  1  0
 23 24  2  0
 24 25  1  0
 25 26  2  0
 26 29  1  0
 29 27  2  0
 27 23  1  0
 13 15  2  0
 15 16  1  0
 16 17  2  0
 17 18  1  0
 18 19  2  0
 19 13  1  0
  1  2  2  0
  2  4  1  0
  4  6  2  0
  6  5  1  0
  5  3  2  0
  3  1  1  0
  8  9  2  0
  9 10  1  0
 10 14  2  0
 14 12  1  0
 12 11  2  0
 11  8  1  0
M  END
$$$$
