No_678-complexes_sdf/6BKW-FPZ/2024-09-17-14-21-01/
     RDKit          3D

 29 31  0  0  0  0  0  0  0  0999 V2000
   -7.7129    4.2099   27.0854 C   0  0  0  0  0  0  0  0  0  0  0  0
   -8.2112    3.0637   26.9225 C   0  0  0  0  0  0  0  0  0  0  0  0
   -8.5108    5.3904   26.9436 C   0  0  0  0  0  0  0  0  0  0  0  0
   -9.7256    5.1955   26.3518 C   0  0  0  0  0  0  0  0  0  0  0  0
   -9.4995    2.8258   26.4878 C   0  0  0  0  0  0  0  0  0  0  0  0
  -10.2542    3.9691   26.2055 C   0  0  0  0  0  0  0  0  0  0  0  0
   -7.9135    6.7086   27.1885 C   0  0  0  0  0  0  0  0  0  0  0  0
   -7.3624    1.8198   27.2561 C   0  0  0  0  0  0  0  0  0  0  0  0
   -5.9197    2.0440   28.0071 Cl  0  0  0  0  0  0  0  0  0  0  0  0
   -7.7443    0.5133   26.9200 C   0  0  0  0  0  0  0  0  0  0  0  0
   -7.2285   -0.1681   26.3056 C   0  0  0  0  0  0  0  0  0  0  0  0
   -7.1039   -1.0599   25.8231 C   0  0  0  0  0  0  0  0  0  0  0  0
   -8.1266   -2.0536   25.7920 C   0  0  0  0  0  0  0  0  0  0  0  0
   -9.2297   -1.5803   26.5088 C   0  0  0  0  0  0  0  0  0  0  0  0
   -9.1317   -0.2891   27.1719 C   0  0  0  0  0  0  0  0  0  0  0  0
   -8.5797    7.8242   26.8148 N   0  0  0  0  0  0  0  0  0  0  0  0
   -7.0223    6.8523   28.1220 O   0  0  0  0  0  0  0  0  0  0  0  0
   -6.1116    0.7364   26.0580 O   0  0  0  0  0  0  0  0  0  0  0  0
  -10.4437   -2.3231   26.8831 C   0  0  2  0  0  0  0  0  0  0  0  0
  -10.4783   -2.9759   27.9093 C   0  0  0  0  0  0  0  0  0  0  0  0
  -10.8811   -2.8681   28.9071 C   0  0  0  0  0  0  0  0  0  0  0  0
  -10.8951   -3.3055   30.1730 C   0  0  0  0  0  0  0  0  0  0  0  0
  -11.4089   -2.7351   31.4111 C   0  0  0  0  0  0  0  0  0  0  0  0
  -12.3338   -1.6992   31.1871 C   0  0  0  0  0  0  0  0  0  0  0  0
  -12.5275   -1.1465   29.9680 C   0  0  0  0  0  0  0  0  0  0  0  0
  -11.8862   -1.5810   28.9017 C   0  0  0  0  0  0  0  0  0  0  0  0
  -11.0861   -2.8808   25.6286 C   0  0  0  0  0  0  0  0  0  0  0  0
  -11.8747   -1.9779   24.9177 C   0  0  0  0  0  0  0  0  0  0  0  0
  -12.6032   -2.4587   23.8282 C   0  0  0  0  0  0  0  0  0  0  0  0
  3  7  1  0
  2  8  1  0
  8  9  1  0
  8 10  1  0
  7 16  1  0
  7 17  2  0
 11 18  1  0
 14 19  1  0
 19 20  1  1
 19 27  1  0
 27 28  2  3
 28 29  1  0
 20 21  1  0
  1  2  2  0
  2  5  1  0
  5  6  2  0
  6  4  1  0
  4  3  2  0
  3  1  1  0
 10 11  2  0
 11 12  1  0
 12 13  2  0
 13 14  1  0
 14 15  2  0
 15 10  1  0
 21 22  2  0
 22 23  1  0
 23 24  2  0
 24 25  1  0
 25 26  2  0
 26 21  1  0
M  END
$$$$
