No_6844-complexes_sdf/6BKW-FPZ/2024-09-17-14-21-01/
     RDKit          3D

 29 32  0  0  0  0  0  0  0  0999 V2000
   -7.9040    3.9820   27.1177 C   0  0  0  0  0  0  0  0  0  0  0  0
   -8.2057    2.8231   26.8733 C   0  0  0  0  0  0  0  0  0  0  0  0
   -8.7695    5.0740   26.7916 C   0  0  0  0  0  0  0  0  0  0  0  0
   -8.4337    6.4678   27.0913 C   0  0  0  0  0  0  0  0  0  0  0  0
   -9.3742    2.4311   26.2346 C   0  0  0  0  0  0  0  0  0  0  0  0
  -10.2395    3.4267   25.8887 C   0  0  0  0  0  0  0  0  0  0  0  0
   -9.9567    4.7548   26.1374 C   0  0  0  0  0  0  0  0  0  0  0  0
   -7.8894    6.9001   28.1379 N   0  0  0  0  0  0  0  0  0  0  0  0
   -8.8418    7.3448   26.2160 O   0  0  0  0  0  0  0  0  0  0  0  0
   -7.0884    1.5117   27.3652 Cl  0  0  0  0  0  0  0  0  0  0  0  0
  -11.4673    3.1201   25.1307 C   0  0  1  0  0  0  0  0  0  0  0  0
  -12.5981    2.7281   25.7251 C   0  0  0  0  0  0  0  0  0  0  0  0
  -12.6453    2.4463   26.9299 C   0  0  0  0  0  0  0  0  0  0  0  0
  -13.1783    2.3396   27.8242 C   0  0  0  0  0  0  0  0  0  0  0  0
  -13.2672    2.1688   29.2208 C   0  0  0  0  0  0  0  0  0  0  0  0
  -13.7271    2.9837   30.1103 C   0  0  0  0  0  0  0  0  0  0  0  0
  -13.7077    2.7274   31.5339 C   0  0  0  0  0  0  0  0  0  0  0  0
  -11.4152    3.4553   23.6785 C   0  0  0  0  0  0  0  0  0  0  0  0
  -11.0375    2.6388   22.8732 C   0  0  0  0  0  0  0  0  0  0  0  0
  -10.8513    2.9062   21.4570 C   0  0  0  0  0  0  0  0  0  0  0  0
  -11.0180    4.2165   20.9939 C   0  0  0  0  0  0  0  0  0  0  0  0
  -11.3364    5.1840   21.9673 C   0  0  0  0  0  0  0  0  0  0  0  0
  -11.5147    4.8878   23.3028 C   0  0  0  0  0  0  0  0  0  0  0  0
  -13.7323    2.6154   24.8284 C   0  0  0  0  0  0  0  0  0  0  0  0
  -14.9608    2.5881   25.6305 C   0  0  0  0  0  0  0  0  0  0  0  0
  -14.8436    2.4183   27.3664 C   0  0  0  0  0  0  0  0  0  0  0  0
  -13.9743    1.5148   31.9536 C   0  0  0  0  0  0  0  0  0  0  0  0
  -13.7279    0.4540   31.0008 C   0  0  0  0  0  0  0  0  0  0  0  0
  -13.8283    0.6819   29.6258 C   0  0  0  0  0  0  0  0  0  0  0  0
  3  4  1  0
  4  8  1  0
  4  9  2  0
  2 10  1  0
 11  6  1  1
 11 12  1  0
 14 15  1  0
 11 18  1  0
 18 19  2  0
 19 20  1  0
 20 21  2  0
 21 22  1  0
 22 23  2  0
 23 18  1  0
 15 16  2  0
 16 17  1  0
 17 27  2  0
 27 28  1  0
 28 29  2  0
 29 15  1  0
 12 13  2  0
 13 14  1  0
 14 26  2  0
 26 25  1  0
 25 24  2  0
 24 12  1  0
  1  2  2  0
  2  5  1  0
  5  6  2  0
  6  7  1  0
  7  3  2  0
  3  1  1  0
M  END
$$$$
