No_6571-complexes_sdf/6BKW-FPZ/2024-09-17-14-21-01/
     RDKit          3D

 38 43  0  0  0  0  0  0  0  0999 V2000
   -7.9040    3.9820   27.1177 C   0  0  0  0  0  0  0  0  0  0  0  0
   -7.8663    4.8694   27.9238 C   0  0  0  0  0  0  0  0  0  0  0  0
   -9.0501    3.8017   26.2617 C   0  0  0  0  0  0  0  0  0  0  0  0
  -10.0189    4.7608   26.3707 C   0  0  0  0  0  0  0  0  0  0  0  0
   -8.6770    5.9780   27.9222 C   0  0  0  0  0  0  0  0  0  0  0  0
   -9.8040    5.8752   27.0958 C   0  0  0  0  0  0  0  0  0  0  0  0
   -9.1434    2.6226   25.4210 C   0  0  0  0  0  0  0  0  0  0  0  0
  -10.1282    1.8348   25.6605 C   0  0  0  0  0  0  0  0  0  0  0  0
  -11.0884    1.8353   26.2092 C   0  0  0  0  0  0  0  0  0  0  0  0
  -11.8815    1.2912   26.7147 C   0  0  0  0  0  0  0  0  0  0  0  0
  -13.0717    1.6307   27.5628 C   0  0  0  0  0  0  0  0  0  0  0  0
  -13.1138    2.9726   27.8405 C   0  0  0  0  0  0  0  0  0  0  0  0
  -12.2440    3.8475   27.4204 C   0  0  0  0  0  0  0  0  0  0  0  0
  -11.1966    3.4591   26.7216 C   0  0  0  0  0  0  0  0  0  0  0  0
   -9.7436    0.4309   25.1770 C   0  0  0  0  0  0  0  0  0  0  0  0
   -9.1219   -0.3531   25.7935 C   0  0  0  0  0  0  0  0  0  0  0  0
   -8.4696   -1.2150   25.8450 C   0  0  0  0  0  0  0  0  0  0  0  0
   -7.6418   -1.8115   26.3187 C   0  0  0  0  0  0  0  0  0  0  0  0
   -6.5593   -2.3110   25.7938 C   0  0  0  0  0  0  0  0  0  0  0  0
   -5.4795   -1.7662   25.6995 C   0  0  0  0  0  0  0  0  0  0  0  0
   -4.2725   -2.2297   25.0360 C   0  0  0  0  0  0  0  0  0  0  0  0
   -3.7416   -3.0463   25.3675 C   0  0  0  0  0  0  0  0  0  0  0  0
   -2.5792   -3.5416   24.7088 C   0  0  0  0  0  0  0  0  0  0  0  0
   -1.5625   -4.2053   25.2571 C   0  0  0  0  0  0  0  0  0  0  0  0
   -1.8124   -4.8049   26.5440 C   0  0  0  0  0  0  0  0  0  0  0  0
   -2.9208   -4.4544   27.1883 C   0  0  0  0  0  0  0  0  0  0  0  0
   -3.8376   -3.5363   26.7438 C   0  0  0  0  0  0  0  0  0  0  0  0
  -10.2497    0.1686   23.8201 C   0  0  0  0  0  0  0  0  0  0  0  0
   -9.6541   -0.9773   23.2805 C   0  0  0  0  0  0  0  0  0  0  0  0
   -8.5442   -1.7683   24.2319 C   0  0  0  0  0  0  0  0  0  0  0  0
   -6.7028   -3.7071   25.2832 C   0  0  0  0  0  0  0  0  0  0  0  0
   -7.0089   -3.8900   24.0373 C   0  0  2  0  0  0  0  0  0  0  0  0
   -8.0192   -2.9169   23.5369 C   0  0  1  0  0  0  0  0  0  0  0  0
   -8.5277   -3.1831   22.3547 F   0  0  0  0  0  0  0  0  0  0  0  0
   -6.7953   -5.0405   23.2986 C   0  0  0  0  0  0  0  0  0  0  0  0
   -5.9032   -4.9513   22.3156 C   0  0  0  0  0  0  0  0  0  0  0  0
   -5.4913   -6.1262   21.5891 C   0  0  0  0  0  0  0  0  0  0  0  0
   -6.1401   -7.2872   21.9321 C   0  0  0  0  0  0  0  0  0  0  0  0
  8 15  1  0
 18 19  1  0
 19 20  2  3
 20 21  1  0
 19 31  1  0
 32 31  1  1
 30 33  1  0
 32 33  1  0
 33 34  1  1
 32 35  1  0
 35 36  2  3
 36 37  1  0
 37 38  2  0
 18 17  1  0
 21 22  1  0
 15 16  2  0
 16 17  1  0
 17 30  2  0
 30 29  1  0
 29 28  2  0
 28 15  1  0
 22 23  2  0
 23 24  1  0
 24 25  2  0
 25 26  1  0
 26 27  2  0
 27 22  1  0
  9 10  1  0
 10 11  2  0
 11 12  1  0
 12 13  2  0
 13 14  1  0
  4 14  2  0
 14  9  1  0
  9  8  2  0
  8  7  1  0
  7  3  2  0
  1  2  2  0
  2  5  1  0
  5  6  2  0
  6  4  1  0
  4  3  1  0
  3  1  1  0
M  END
$$$$
