No_6565-complexes_sdf/6BKW-FPZ/2024-09-17-14-21-01/
     RDKit          3D

 21 23  0  0  0  0  0  0  0  0999 V2000
   -7.7129    4.2099   27.0854 C   0  0  0  0  0  0  0  0  0  0  0  0
   -7.7814    5.1722   27.8972 C   0  0  0  0  0  0  0  0  0  0  0  0
   -8.8998    3.8713   26.3707 C   0  0  0  0  0  0  0  0  0  0  0  0
   -8.9563    2.6796   25.5490 C   0  0  0  0  0  0  0  0  0  0  0  0
   -8.8131    6.1334   27.9344 C   0  0  0  0  0  0  0  0  0  0  0  0
   -9.9804    5.8121   27.1929 C   0  0  0  0  0  0  0  0  0  0  0  0
   -9.9861    4.6836   26.4532 C   0  0  0  0  0  0  0  0  0  0  0  0
   -9.7724    2.5811   24.5447 N   0  0  0  0  0  0  0  0  0  0  0  0
   -9.7885    1.5520   23.6825 C   0  0  0  0  0  0  0  0  0  0  0  0
   -8.1763    1.7381   25.7880 O   0  0  0  0  0  0  0  0  0  0  0  0
  -10.2907    1.8000   22.4113 C   0  0  0  0  0  0  0  0  0  0  0  0
  -10.2135    0.7853   21.3960 C   0  0  0  0  0  0  0  0  0  0  0  0
   -9.6278   -0.4773   21.7119 C   0  0  0  0  0  0  0  0  0  0  0  0
   -9.0821   -0.6449   23.0153 C   0  0  0  0  0  0  0  0  0  0  0  0
   -9.1394    0.3362   23.9670 C   0  0  0  0  0  0  0  0  0  0  0  0
   -9.6325   -1.4919   20.6704 C   0  0  0  0  0  0  0  0  0  0  0  0
   -8.5504   -2.2672   20.5224 C   0  0  0  0  0  0  0  0  0  0  0  0
   -8.4090   -3.0961   19.3597 C   0  0  0  0  0  0  0  0  0  0  0  0
   -9.4902   -3.1008   18.4675 C   0  0  0  0  0  0  0  0  0  0  0  0
  -10.5556   -2.2899   18.6476 C   0  0  0  0  0  0  0  0  0  0  0  0
  -10.5819   -1.4039   19.6877 C   0  0  0  0  0  0  0  0  0  0  0  0
  3  4  1  0
  4  8  1  0
  8  9  1  0
  4 10  2  0
 13 16  1  0
 16 17  2  0
 17 18  1  0
 18 19  2  0
 19 20  1  0
 20 21  2  0
 21 16  1  0
  1  2  2  0
  2  5  1  0
  5  6  2  0
  6  7  1  0
  7  3  2  0
  3  1  1  0
  9 11  2  0
 11 12  1  0
 12 13  2  0
 13 14  1  0
 14 15  2  0
 15  9  1  0
M  END
$$$$
