No_6899-complexes_sdf/6BKW-FPZ/2024-09-17-14-21-01/
     RDKit          3D

 33 38  0  0  0  0  0  0  0  0999 V2000
   -7.9040    3.9820   27.1177 C   0  0  0  0  0  0  0  0  0  0  0  0
   -7.8663    4.8694   27.9238 C   0  0  0  0  0  0  0  0  0  0  0  0
   -9.0953    3.1697   27.0532 C   0  0  0  0  0  0  0  0  0  0  0  0
  -10.1313    3.4052   27.8871 C   0  0  0  0  0  0  0  0  0  0  0  0
   -8.9489    5.3814   28.6671 C   0  0  0  0  0  0  0  0  0  0  0  0
  -10.1039    4.5714   28.7102 C   0  0  0  0  0  0  0  0  0  0  0  0
   -9.0505    1.9437   26.1963 C   0  0  0  0  0  0  0  0  0  0  0  0
   -9.5005    2.1052   24.8742 C   0  0  0  0  0  0  0  0  0  0  0  0
   -9.9789    3.4264   24.4626 C   0  0  0  0  0  0  0  0  0  0  0  0
  -10.4326    3.6756   23.1636 C   0  0  0  0  0  0  0  0  0  0  0  0
  -10.4112    2.8832   22.4036 C   0  0  0  0  0  0  0  0  0  0  0  0
   -9.9108    1.4815   22.6157 C   0  0  0  0  0  0  0  0  0  0  0  0
   -9.4534    1.2120   23.8552 C   0  0  0  0  0  0  0  0  0  0  0  0
   -8.5600    0.7287   26.6539 C   0  0  0  0  0  0  0  0  0  0  0  0
   -7.3512    0.3690   26.8419 C   0  0  0  0  0  0  0  0  0  0  0  0
   -6.8620   -0.8237   27.4073 C   0  0  0  0  0  0  0  0  0  0  0  0
   -7.8823   -1.7346   27.7967 C   0  0  0  0  0  0  0  0  0  0  0  0
   -9.5115   -0.2546   27.1731 C   0  0  0  0  0  0  0  0  0  0  0  0
   -9.1957   -1.4006   27.7478 C   0  0  0  0  0  0  0  0  0  0  0  0
  -11.0037    0.0878   27.0851 C   0  0  0  0  0  0  0  0  0  0  0  0
  -11.8961   -0.6322   27.5541 C   0  0  0  0  0  0  0  0  0  0  0  0
  -13.2279   -0.2926   27.4653 C   0  0  0  0  0  0  0  0  0  0  0  0
  -14.2470   -1.0558   28.1031 C   0  0  0  0  0  0  0  0  0  0  0  0
  -13.8626   -2.1546   28.8025 C   0  0  0  0  0  0  0  0  0  0  0  0
  -12.5783   -2.5122   28.9999 C   0  0  0  0  0  0  0  0  0  0  0  0
  -11.5831   -1.7805   28.4624 C   0  0  0  0  0  0  0  0  0  0  0  0
  -10.1902   -2.1592   28.3751 N   0  0  0  0  0  0  0  0  0  0  0  0
   -9.7705   -2.9726   29.5306 C   0  0  0  0  0  0  0  0  0  0  0  0
   -9.3512   -2.3865   30.6523 C   0  0  0  0  0  0  0  0  0  0  0  0
   -8.9528   -3.1158   31.7789 C   0  0  0  0  0  0  0  0  0  0  0  0
   -8.9358   -4.4853   31.6983 C   0  0  0  0  0  0  0  0  0  0  0  0
   -9.7858   -4.2231   29.2367 C   0  0  0  0  0  0  0  0  0  0  0  0
   -9.3750   -5.1056   30.4402 C   0  0  0  0  0  0  0  0  0  0  0  0
  3  7  1  0
  7 14  1  0
 18 20  1  0
 19 27  1  0
 26 27  1  0
 27 28  1  0
  7  8  1  0
 20 21  1  0
  1  2  2  0
  2  5  1  0
  5  6  2  0
  6  4  1  0
  4  3  2  0
  3  1  1  0
 28 29  2  0
 29 30  1  0
 30 31  2  0
 31 33  1  0
 33 32  2  0
 32 28  1  0
 14 15  2  0
 15 16  1  0
 16 17  2  0
 17 19  1  0
 19 18  2  0
 18 14  1  0
  8  9  2  0
  9 10  1  0
 10 11  2  0
 11 12  1  0
 12 13  2  0
 13  8  1  0
 21 22  2  0
 22 23  1  0
 23 24  2  0
 24 25  1  0
 25 26  2  0
 26 21  1  0
M  END
$$$$
