No_6000-complexes_sdf/6BKW-FPZ/2024-09-17-14-21-01/
     RDKit          3D

 14 15  0  0  0  0  0  0  0  0999 V2000
   -7.9040    3.9820   27.1177 C   0  0  0  0  0  0  0  0  0  0  0  0
   -9.0711    4.3164   27.0630 C   0  0  0  0  0  0  0  0  0  0  0  0
   -9.9692    3.7224   26.1073 C   0  0  0  0  0  0  0  0  0  0  0  0
   -7.4776    2.6994   26.6283 C   0  0  0  0  0  0  0  0  0  0  0  0
   -8.4406    1.9440   25.9776 C   0  0  0  0  0  0  0  0  0  0  0  0
   -9.6379    2.5001   25.6881 C   0  0  0  0  0  0  0  0  0  0  0  0
   -6.7701    4.7886   28.1891 Cl  0  0  0  0  0  0  0  0  0  0  0  0
  -10.5973    1.7372   24.8197 C   0  0  0  0  0  0  0  0  0  0  0  0
  -10.9169    2.1666   23.7999 N   0  0  0  0  0  0  0  0  0  0  0  0
  -10.9965    3.3806   23.5381 C   0  0  0  0  0  0  0  0  0  0  0  0
  -10.4282    4.5416   23.9678 C   0  0  0  0  0  0  0  0  0  0  0  0
  -10.0321    4.6940   25.2556 C   0  0  0  0  0  0  0  0  0  0  0  0
  -11.5093    1.2056   22.7920 C   0  0  0  0  0  0  0  0  0  0  0  0
  -11.6757    1.5507   21.6336 C   0  0  0  0  0  0  0  0  0  0  0  0
  1  7  1  0
  6  8  1  0
  8  9  1  0
  9 10  1  0
 10 11  2  0
  3 12  1  0
 11 12  1  0
  9 13  1  0
 13 14  1  0
  1  2  2  0
  2  3  1  0
  3  6  2  0
  6  5  1  0
  5  4  2  0
  4  1  1  0
M  END
$$$$
