No_6755-complexes_sdf/6BKW-FPZ/2024-09-17-14-21-01/
     RDKit          3D

 12 13  0  0  0  0  0  0  0  0999 V2000
   -7.2496    3.8871   27.4508 C   0  0  0  0  0  0  0  0  0  0  0  0
   -8.5096    4.0291   27.2770 C   0  0  0  0  0  0  0  0  0  0  0  0
   -9.3451    2.8786   26.9046 C   0  0  0  0  0  0  0  0  0  0  0  0
  -10.6709    3.0505   26.6789 C   0  0  0  0  0  0  0  0  0  0  0  0
   -6.5391    4.9920   28.0504 C   0  0  0  0  0  0  0  0  0  0  0  0
  -11.4817    1.9548   26.3430 C   0  0  0  0  0  0  0  0  0  0  0  0
   -7.2651    6.2228   28.1657 C   0  0  0  0  0  0  0  0  0  0  0  0
   -9.1466    5.2782   27.5147 C   0  0  0  0  0  0  0  0  0  0  0  0
   -8.4797    6.3257   27.8704 N   0  0  0  0  0  0  0  0  0  0  0  0
   -8.7598    1.6541   26.6741 C   0  0  0  0  0  0  0  0  0  0  0  0
   -9.4719    0.5657   26.3062 C   0  0  0  0  0  0  0  0  0  0  0  0
  -10.8404    0.7155   26.1633 C   0  0  0  0  0  0  0  0  0  0  0  0
  2  3  1  0
  3  4  2  0
  4  6  1  0
  6 12  2  0
 12 11  1  0
 11 10  2  0
 10  3  1  0
  1  2  2  0
  2  8  1  0
  8  9  2  0
  9  7  1  0
  7  5  2  0
  5  1  1  0
M  END
$$$$
