No_6846-complexes_sdf/6BKW-FPZ/2024-09-17-14-21-01/
     RDKit          3D

 19 21  0  0  0  0  0  0  0  0999 V2000
   -7.7129    4.2099   27.0854 C   0  0  0  0  0  0  0  0  0  0  0  0
   -7.7814    5.1722   27.8972 C   0  0  0  0  0  0  0  0  0  0  0  0
   -7.3155    2.9699   27.6145 C   0  0  0  0  0  0  0  0  0  0  0  0
   -7.9010    1.7962   27.2023 C   0  0  0  0  0  0  0  0  0  0  0  0
   -8.9578    1.9047   26.2707 C   0  0  0  0  0  0  0  0  0  0  0  0
   -9.3989    3.1000   25.8096 C   0  0  0  0  0  0  0  0  0  0  0  0
   -8.8948    4.1615   26.3218 C   0  0  0  0  0  0  0  0  0  0  0  0
   -8.2271    6.4668   27.5438 N   0  0  0  0  0  0  0  0  0  0  0  0
   -9.0798    6.6377   26.5319 C   0  0  0  0  0  0  0  0  0  0  0  0
   -9.5047    5.4887   25.9469 C   0  0  0  0  0  0  0  0  0  0  0  0
   -7.2798    0.5007   27.5396 C   0  0  1  0  0  0  0  0  0  0  0  0
   -5.9669    0.3759   27.9902 C   0  0  0  0  0  0  0  0  0  0  0  0
   -5.4634   -0.7979   28.5078 C   0  0  0  0  0  0  0  0  0  0  0  0
   -4.1334   -0.8507   29.0227 C   0  0  0  0  0  0  0  0  0  0  0  0
   -3.3058    0.2599   28.8642 C   0  0  0  0  0  0  0  0  0  0  0  0
   -5.0038    1.4637   27.9569 C   0  0  0  0  0  0  0  0  0  0  0  0
   -3.7623    1.3534   28.3754 N   0  0  0  0  0  0  0  0  0  0  0  0
   -8.1066   -0.6767   27.4843 C   0  0  0  0  0  0  0  0  0  0  0  0
   -8.9658   -1.0068   28.5669 C   0  0  0  0  0  0  0  0  0  0  0  0
  4 11  1  0
 11 12  1  0
 11 18  1  1
 18 19  2  0
 12 13  2  0
 13 14  1  0
 14 15  2  0
 15 17  1  0
 17 16  2  0
 16 12  1  0
  1  2  2  0
  2  8  1  0
  8  9  2  0
  9 10  1  0
 10  7  2  0
  1  3  1  0
  3  4  2  0
  4  5  1  0
  5  6  2  0
  6  7  1  0
  7  1  1  0
M  END
$$$$
