No_6151-complexes_sdf/6BKW-FPZ/2024-09-17-14-21-01/
     RDKit          3D

 13 14  0  0  0  0  0  0  0  0999 V2000
   -7.9040    3.9820   27.1177 C   0  0  0  0  0  0  0  0  0  0  0  0
   -7.8663    4.8694   27.9238 C   0  0  0  0  0  0  0  0  0  0  0  0
   -9.0806    3.1428   27.1220 C   0  0  0  0  0  0  0  0  0  0  0  0
   -8.9544    1.8782   26.5467 C   0  0  0  0  0  0  0  0  0  0  0  0
   -8.9948    5.7403   28.1705 C   0  0  0  0  0  0  0  0  0  0  0  0
   -9.9359    1.0372   26.4454 C   0  0  0  0  0  0  0  0  0  0  0  0
  -10.2581    5.0954   27.9858 C   0  0  0  0  0  0  0  0  0  0  0  0
  -10.2344    3.8558   27.3571 C   0  0  0  0  0  0  0  0  0  0  0  0
   -9.7818   -0.3154   26.0125 C   0  0  0  0  0  0  0  0  0  0  0  0
   -8.5232   -0.6847   25.6053 C   0  0  0  0  0  0  0  0  0  0  0  0
   -7.4448    0.1393   25.7017 C   0  0  0  0  0  0  0  0  0  0  0  0
   -7.5873    1.4259   26.2405 C   0  0  0  0  0  0  0  0  0  0  0  0
   -6.7161    5.6303   28.1663 F   0  0  0  0  0  0  0  0  0  0  0  0
  3  4  1  0
  2 13  1  0
  1  2  2  0
  2  5  1  0
  5  7  2  0
  7  8  1  0
  8  3  2  0
  3  1  1  0
  4  6  2  0
  6  9  1  0
  9 10  2  0
 10 11  1  0
 11 12  2  0
 12  4  1  0
M  END
$$$$
