No_6830-complexes_sdf/6BKW-FPZ/2024-09-17-14-21-01/
     RDKit          3D

 23 26  0  0  0  0  0  0  0  0999 V2000
   -7.2496    3.8871   27.4508 C   0  0  0  0  0  0  0  0  0  0  0  0
   -7.6161    2.7143   27.1523 C   0  0  0  0  0  0  0  0  0  0  0  0
   -8.8302    2.4659   26.5056 C   0  0  0  0  0  0  0  0  0  0  0  0
   -8.1584    5.0090   27.3234 C   0  0  0  0  0  0  0  0  0  0  0  0
   -9.3788    4.7965   26.7695 C   0  0  0  0  0  0  0  0  0  0  0  0
   -9.7028    3.5649   26.3276 C   0  0  0  0  0  0  0  0  0  0  0  0
   -6.7190    1.5585   27.3667 C   0  0  0  0  0  0  0  0  0  0  0  0
   -7.0504    0.2135   27.2455 C   0  0  0  0  0  0  0  0  0  0  0  0
   -8.4198    0.0873   26.7028 C   0  0  0  0  0  0  0  0  0  0  0  0
   -9.2596    1.1156   26.3288 C   0  0  0  0  0  0  0  0  0  0  0  0
   -7.6997    6.3618   27.7684 C   0  0  1  0  0  0  0  0  0  0  0  0
   -6.7723    6.3713   28.5679 F   0  0  0  0  0  0  0  0  0  0  0  0
   -8.0802    7.4472   27.0076 C   0  0  0  0  0  0  0  0  0  0  0  0
   -6.1069   -0.7110   27.5130 C   0  0  0  0  0  0  0  0  0  0  0  0
   -5.1773   -1.0131   27.1767 C   0  0  0  0  0  0  0  0  0  0  0  0
   -4.0580   -1.4644   27.2483 C   0  0  0  0  0  0  0  0  0  0  0  0
   -3.4464   -1.7905   28.4102 C   0  0  0  0  0  0  0  0  0  0  0  0
   -4.4378   -1.5892   29.5061 C   0  0  0  0  0  0  0  0  0  0  0  0
   -5.7275   -1.0142   29.1285 C   0  0  0  0  0  0  0  0  0  0  0  0
   -4.1709   -1.7952   30.9266 C   0  0  0  0  0  0  0  0  0  0  0  0
   -3.2694   -2.1195   31.3773 C   0  0  0  0  0  0  0  0  0  0  0  0
   -1.9755   -2.2114   30.5970 C   0  0  0  0  0  0  0  0  0  0  0  0
   -2.1729   -2.1047   29.1700 C   0  0  0  0  0  0  0  0  0  0  0  0
  4 11  1  0
 11 12  1  0
 11 13  1  6
  8 14  1  0
 14 15  2  0
 15 16  1  0
 16 17  2  0
 18 19  2  0
 19 14  1  0
  1  2  2  0
  3  6  2  0
  6  5  1  0
  5  4  2  0
  4  1  1  0
  2  3  1  0
  3 10  1  0
 10  9  2  0
  9  8  1  0
  8  7  2  0
  7  2  1  0
 17 18  1  0
 18 20  1  0
 20 21  2  0
 21 22  1  0
 22 23  2  0
 23 17  1  0
M  END
$$$$
