No_6879-complexes_sdf/6BKW-FPZ/2024-09-17-14-21-01/
     RDKit          3D

 18 20  0  0  0  0  0  0  0  0999 V2000
   -7.2496    3.8871   27.4508 C   0  0  0  0  0  0  0  0  0  0  0  0
   -8.5096    4.0291   27.2770 C   0  0  0  0  0  0  0  0  0  0  0  0
   -9.3502    2.8685   26.8763 C   0  0  0  0  0  0  0  0  0  0  0  0
   -6.6288    2.5513   27.4938 C   0  0  0  0  0  0  0  0  0  0  0  0
   -5.3133    2.3438   27.8471 C   0  0  0  0  0  0  0  0  0  0  0  0
   -8.7952    1.6252   26.9034 C   0  0  0  0  0  0  0  0  0  0  0  0
   -7.4540    1.4474   27.2751 C   0  0  0  0  0  0  0  0  0  0  0  0
   -9.1125    5.3963   27.1565 C   0  0  0  0  0  0  0  0  0  0  0  0
   -8.5152    6.4513   27.1041 C   0  0  0  0  0  0  0  0  0  0  0  0
   -4.7445    1.0616   28.0034 C   0  0  0  0  0  0  0  0  0  0  0  0
   -5.5974   -0.0358   27.7200 C   0  0  0  0  0  0  0  0  0  0  0  0
   -6.9046    0.1435   27.3942 C   0  0  0  0  0  0  0  0  0  0  0  0
   -9.0853    7.8245   26.9282 C   0  0  0  0  0  0  0  0  0  0  0  0
   -7.0750    6.6060   27.4708 C   0  0  0  0  0  0  0  0  0  0  0  0
   -3.3604    0.9165   28.4129 C   0  0  0  0  0  0  0  0  0  0  0  0
   -3.0785   -0.1987   29.2623 C   0  0  0  0  0  0  0  0  0  0  0  0
   -3.6686   -1.3427   29.1094 C   0  0  0  0  0  0  0  0  0  0  0  0
   -5.1067   -1.2488   28.5621 C   0  0  0  0  0  0  0  0  0  0  0  0
  2  8  1  0
  8  9  2  3
  9 13  1  0
  9 14  1  0
  1  2  2  0
  2  3  1  0
  3  6  2  0
  6  7  1  0
  4  1  1  0
  4  5  2  0
  5 10  1  0
 11 12  1  0
 12  7  2  0
  7  4  1  0
 10 11  2  0
 11 18  1  0
 18 17  2  0
 17 16  1  0
 16 15  2  0
 15 10  1  0
M  END
$$$$
