No_646-complexes_sdf/6BKW-FPZ/2024-09-17-14-21-01/
     RDKit          3D

 33 38  0  0  0  0  0  0  0  0999 V2000
   -7.9040    3.9820   27.1177 C   0  0  0  0  0  0  0  0  0  0  0  0
   -7.8663    4.8694   27.9238 C   0  0  0  0  0  0  0  0  0  0  0  0
   -7.4698    2.6989   27.4277 C   0  0  0  0  0  0  0  0  0  0  0  0
   -7.9683    1.5964   26.8266 C   0  0  0  0  0  0  0  0  0  0  0  0
   -8.9447    1.7923   25.8533 C   0  0  0  0  0  0  0  0  0  0  0  0
   -9.4405    2.9988   25.5757 C   0  0  0  0  0  0  0  0  0  0  0  0
   -8.9424    4.1117   26.2388 C   0  0  0  0  0  0  0  0  0  0  0  0
   -8.3103    6.1970   27.6444 N   0  0  0  0  0  0  0  0  0  0  0  0
   -7.8893    7.2360   27.8660 C   0  0  0  0  0  0  0  0  0  0  0  0
   -9.6089    6.1802   27.0302 C   0  0  0  0  0  0  0  0  0  0  0  0
   -9.7354    5.2176   26.0682 C   0  0  0  0  0  0  0  0  0  0  0  0
   -7.3471    0.2437   27.0503 C   0  0  0  0  0  0  0  0  0  0  0  0
   -6.0812    0.1492   27.6068 C   0  0  0  0  0  0  0  0  0  0  0  0
   -5.5249   -1.0809   27.9073 C   0  0  0  0  0  0  0  0  0  0  0  0
   -4.2123   -1.1122   28.5155 C   0  0  0  0  0  0  0  0  0  0  0  0
   -3.5271    0.0936   28.8288 C   0  0  0  0  0  0  0  0  0  0  0  0
   -4.1567    1.3308   28.5671 C   0  0  0  0  0  0  0  0  0  0  0  0
   -5.3607    1.3549   27.9824 C   0  0  0  0  0  0  0  0  0  0  0  0
   -6.0663    2.5896   27.8371 N   0  0  0  0  0  0  0  0  0  0  0  0
   -9.4253    0.5873   25.0587 C   0  0  0  0  0  0  0  0  0  0  0  0
   -8.9008    0.4302   23.8087 C   0  0  0  0  0  0  0  0  0  0  0  0
   -9.2748   -0.6160   22.9769 C   0  0  0  0  0  0  0  0  0  0  0  0
   -8.8227   -0.5817   21.6396 C   0  0  0  0  0  0  0  0  0  0  0  0
   -9.1948   -1.6126   20.8041 C   0  0  0  0  0  0  0  0  0  0  0  0
   -9.9696   -2.6671   21.2247 C   0  0  0  0  0  0  0  0  0  0  0  0
  -10.4086   -2.6685   22.4810 C   0  0  0  0  0  0  0  0  0  0  0  0
  -10.0585   -1.6786   23.3673 C   0  0  0  0  0  0  0  0  0  0  0  0
  -10.9821    0.5950   25.0909 C   0  0  0  0  0  0  0  0  0  0  0  0
  -11.5729   -0.2126   26.0112 C   0  0  0  0  0  0  0  0  0  0  0  0
  -12.9537   -0.2684   26.0499 C   0  0  0  0  0  0  0  0  0  0  0  0
  -13.6778    0.5136   25.1399 C   0  0  0  0  0  0  0  0  0  0  0  0
  -13.0716    1.3091   24.2116 C   0  0  0  0  0  0  0  0  0  0  0  0
  -11.6728    1.3654   24.1967 C   0  0  0  0  0  0  0  0  0  0  0  0
  2  8  1  0
  8  9  1  0
  8 10  1  0
  7 11  1  0
 10 11  1  0
  5 20  1  0
 20 21  2  3
 21 22  1  0
 20 28  1  0
  2  1  1  0
  1  3  2  0
  4  5  2  0
  5  6  1  0
  6  7  2  0
  7  1  1  0
 22 23  2  0
 23 24  1  0
 24 25  2  0
 25 26  1  0
 26 27  2  0
 27 22  1  0
 28 29  2  0
 29 30  1  0
 30 31  2  0
 31 32  1  0
 32 33  2  0
 33 28  1  0
 13 14  1  0
 14 15  2  0
 15 16  1  0
 16 17  2  0
 17 18  1  0
  3  4  1  0
  4 12  1  0
 12 13  2  0
 13 18  1  0
 18 19  2  0
 19  3  1  0
M  END
$$$$
