No_6229-complexes_sdf/6BKW-FPZ/2024-09-17-14-21-01/
     RDKit          3D

 22 25  0  0  0  0  0  0  0  0999 V2000
   -7.9040    3.9820   27.1177 C   0  0  0  0  0  0  0  0  0  0  0  0
   -7.8663    4.8694   27.9238 C   0  0  0  0  0  0  0  0  0  0  0  0
   -9.0491    3.8523   26.2542 C   0  0  0  0  0  0  0  0  0  0  0  0
   -8.7661    5.9491   27.9690 C   0  0  0  0  0  0  0  0  0  0  0  0
   -9.9279    4.8544   26.1938 C   0  0  0  0  0  0  0  0  0  0  0  0
   -9.8044    5.9413   27.0782 C   0  0  0  0  0  0  0  0  0  0  0  0
   -6.9762    2.7951   27.2180 C   0  0  0  0  0  0  0  0  0  0  0  0
   -5.9173    2.8593   27.9951 N   0  0  0  0  0  0  0  0  0  0  0  0
   -7.3768    1.4716   26.8049 C   0  0  0  0  0  0  0  0  0  0  0  0
   -8.5232    1.2173   26.3071 N   0  0  0  0  0  0  0  0  0  0  0  0
   -6.4575    0.4609   27.1470 C   0  0  0  0  0  0  0  0  0  0  0  0
   -8.9231    0.2436   26.0403 C   0  0  0  0  0  0  0  0  0  0  0  0
   -8.0765   -0.8910   26.1761 C   0  0  0  0  0  0  0  0  0  0  0  0
   -6.8694   -0.7834   26.8200 C   0  0  0  0  0  0  0  0  0  0  0  0
   -5.2847    0.7968   27.8572 C   0  0  0  0  0  0  0  0  0  0  0  0
   -5.0084    2.0998   28.2258 C   0  0  0  0  0  0  0  0  0  0  0  0
   -4.3053   -0.3031   28.1944 C   0  0  0  0  0  0  0  0  0  0  0  0
   -3.4270   -0.8147   27.4883 C   0  0  0  0  0  0  0  0  0  0  0  0
   -4.4577   -0.8260   29.5618 C   0  0  0  0  0  0  0  0  0  0  0  0
   -3.8322   -1.4940   29.9779 C   0  0  0  0  0  0  0  0  0  0  0  0
   -2.4657   -1.7132   27.9622 C   0  0  0  0  0  0  0  0  0  0  0  0
   -2.6395   -2.1078   29.3375 C   0  0  0  0  0  0  0  0  0  0  0  0
  1  7  1  0
 15 17  1  0
  9 10  2  0
 10 12  1  0
 12 13  2  0
 13 14  1  0
 14 11  2  0
  1  2  2  0
  2  4  1  0
  4  6  2  0
  6  5  1  0
  5  3  2  0
  3  1  1  0
 17 18  2  0
 18 21  1  0
 21 22  2  0
 22 20  1  0
 20 19  2  0
 19 17  1  0
  7  8  2  0
  8 16  1  0
 16 15  2  0
 15 11  1  0
 11  9  1  0
  9  7  1  0
M  END
$$$$
