No_6054-complexes_sdf/6BKW-FPZ/2024-09-17-14-21-01/
     RDKit          3D

 40 44  0  0  0  0  0  0  0  0999 V2000
   -7.7129    4.2099   27.0854 C   0  0  0  0  0  0  0  0  0  0  0  0
   -8.2112    3.0637   26.9225 C   0  0  0  0  0  0  0  0  0  0  0  0
   -7.0021    4.5281   28.2396 C   0  0  0  0  0  0  0  0  0  0  0  0
   -9.4237    2.7810   26.2714 C   0  0  0  0  0  0  0  0  0  0  0  0
   -9.8781    3.7859   25.4663 C   0  0  0  0  0  0  0  0  0  0  0  0
   -9.3689    5.0975   25.5965 C   0  0  0  0  0  0  0  0  0  0  0  0
   -8.4784    5.3402   26.5448 C   0  0  0  0  0  0  0  0  0  0  0  0
  -10.9887    3.5347   24.5135 C   0  0  0  0  0  0  0  0  0  0  0  0
  -12.1661    3.1796   24.9300 C   0  0  0  0  0  0  0  0  0  0  0  0
  -10.7291    3.7017   23.1279 C   0  0  0  0  0  0  0  0  0  0  0  0
  -11.5970    3.5024   22.1235 C   0  0  0  0  0  0  0  0  0  0  0  0
  -13.2004    2.9558   23.9243 C   0  0  0  0  0  0  0  0  0  0  0  0
  -12.9005    3.1495   22.5593 C   0  0  0  0  0  0  0  0  0  0  0  0
   -7.6160    1.8418   27.6262 C   0  0  0  0  0  0  0  0  0  0  0  0
   -6.2134    1.6012   27.3151 C   0  0  0  0  0  0  0  0  0  0  0  0
   -5.6165    0.4524   27.9043 C   0  0  0  0  0  0  0  0  0  0  0  0
   -4.2355    0.5071   28.1812 C   0  0  0  0  0  0  0  0  0  0  0  0
   -3.6396   -0.5618   28.8922 C   0  0  0  0  0  0  0  0  0  0  0  0
   -4.4181   -1.6433   29.2277 C   0  0  0  0  0  0  0  0  0  0  0  0
   -5.7499   -1.6697   28.9062 C   0  0  0  0  0  0  0  0  0  0  0  0
   -6.3582   -0.6084   28.2953 C   0  0  0  0  0  0  0  0  0  0  0  0
   -6.6343   -2.8363   29.2709 C   0  0  0  0  0  0  0  0  0  0  0  0
   -6.8330   -3.0978   30.4723 C   0  0  0  0  0  0  0  0  0  0  0  0
   -7.8462   -4.0079   30.9410 C   0  0  0  0  0  0  0  0  0  0  0  0
   -8.5677   -4.6468   29.9222 C   0  0  0  0  0  0  0  0  0  0  0  0
   -7.4937   -3.3488   28.3276 C   0  0  0  0  0  0  0  0  0  0  0  0
   -8.4260   -4.2841   28.6513 C   0  0  0  0  0  0  0  0  0  0  0  0
   -9.6001   -5.6570   30.3106 C   0  0  0  0  0  0  0  0  0  0  0  0
   -9.6540   -6.2908   31.3052 F   0  0  0  0  0  0  0  0  0  0  0  0
   -9.6737   -6.6050   29.2661 F   0  0  0  0  0  0  0  0  0  0  0  0
  -10.8335   -4.9664   30.1876 F   0  0  0  0  0  0  0  0  0  0  0  0
   -2.2926   -0.5484   29.2391 N   0  0  0  0  0  0  0  0  0  0  0  0
   -1.3691   -0.5064   28.2988 C   0  0  0  0  0  0  0  0  0  0  0  0
   -2.0433   -1.4937   30.3801 C   0  0  0  0  0  0  0  0  0  0  0  0
   -2.4268   -0.9711   31.6191 C   0  0  0  0  0  0  0  0  0  0  0  0
   -3.3323   -0.0019   31.8497 C   0  0  0  0  0  0  0  0  0  0  0  0
   -3.5697    0.3723   33.2623 C   0  0  0  0  0  0  0  0  0  0  0  0
   -2.8220   -0.3405   34.2343 C   0  0  0  0  0  0  0  0  0  0  0  0
   -1.8045   -1.4897   32.8909 C   0  0  0  0  0  0  0  0  0  0  0  0
   -1.9344   -1.2194   34.0579 C   0  0  0  0  0  0  0  0  0  0  0  0
  5  8  1  0
  2 14  1  0
 14 15  1  0
 20 22  1  0
 25 28  1  0
 28 29  1  0
 28 30  1  0
 28 31  1  0
 18 32  1  0
 32 33  1  0
 32 34  1  0
 34 35  1  0
 15 16  1  0
  3  1  1  0
 22 23  2  0
 23 24  1  0
 24 25  2  0
 25 27  1  0
 27 26  2  0
 26 22  1  0
 35 36  2  0
 36 37  1  0
 37 38  2  0
 38 40  1  0
 40 39  2  0
 39 35  1  0
  8  9  2  0
  9 12  1  0
 12 13  2  0
 13 11  1  0
 11 10  2  0
 10  8  1  0
  1  2  2  0
  2  4  1  0
  4  5  2  0
  5  6  1  0
  6  7  2  0
  7  1  1  0
 16 17  2  0
 17 18  1  0
 18 19  2  0
 19 20  1  0
 20 21  2  0
 21 16  1  0
M  END
$$$$
