No_6310-complexes_sdf/6BKW-FPZ/2024-09-17-14-21-01/
     RDKit          3D

 15 15  0  0  0  0  0  0  0  0999 V2000
   -7.9040    3.9820   27.1177 C   0  0  0  0  0  0  0  0  0  0  0  0
   -8.2057    2.8231   26.8733 C   0  0  0  0  0  0  0  0  0  0  0  0
   -9.2962    2.4021   26.1155 C   0  0  0  0  0  0  0  0  0  0  0  0
   -8.8403    4.9695   26.9329 C   0  0  0  0  0  0  0  0  0  0  0  0
   -9.9203    4.6961   26.0942 C   0  0  0  0  0  0  0  0  0  0  0  0
  -10.1704    3.4287   25.7979 C   0  0  0  0  0  0  0  0  0  0  0  0
   -8.4806    6.4134   27.2155 C   0  0  0  0  0  0  0  0  0  0  0  0
   -8.2068    7.3657   26.3287 Cl  0  0  0  0  0  0  0  0  0  0  0  0
   -9.5151    0.9945   25.7767 C   0  0  0  0  0  0  0  0  0  0  0  0
   -9.9866    0.1524   26.5855 N   0  0  0  0  0  0  0  0  0  0  0  0
   -9.9659   -1.1111   26.6307 C   0  0  0  0  0  0  0  0  0  0  0  0
   -9.1603    0.5222   24.4881 C   0  0  0  0  0  0  0  0  0  0  0  0
  -10.4769   -1.8522   27.6963 C   0  0  0  0  0  0  0  0  0  0  0  0
   -8.9527   -0.8071   24.3195 C   0  0  0  0  0  0  0  0  0  0  0  0
   -9.5036   -1.7034   25.4006 C   0  0  0  0  0  0  0  0  0  0  0  0
  4  7  1  0
  7  8  1  0
  3  9  1  0
  9 10  1  0
 10 11  1  0
  9 12  1  0
 11 13  2  0
 12 14  1  0
 14 15  2  0
  1  2  2  0
  2  3  1  0
  3  6  2  0
  6  5  1  0
  5  4  2  0
  4  1  1  0
M  END
$$$$
