No_681-complexes_sdf/6BKW-FPZ/2024-09-17-14-21-01/
     RDKit          3D

 40 45  0  0  0  0  0  0  0  0999 V2000
   -7.2496    3.8871   27.4508 C   0  0  0  0  0  0  0  0  0  0  0  0
   -7.6161    2.7143   27.1523 C   0  0  0  0  0  0  0  0  0  0  0  0
   -6.9719    1.5838   27.5324 C   0  0  0  0  0  0  0  0  0  0  0  0
   -7.4590    0.2827   27.2615 C   0  0  0  0  0  0  0  0  0  0  0  0
   -8.7521    2.5117   26.3068 C   0  0  0  0  0  0  0  0  0  0  0  0
   -9.2100    1.2391   25.9794 C   0  0  0  0  0  0  0  0  0  0  0  0
   -8.5134    0.1313   26.5112 C   0  0  0  0  0  0  0  0  0  0  0  0
   -8.0343    5.0565   27.1688 C   0  0  0  0  0  0  0  0  0  0  0  0
   -9.1387    5.0244   26.3111 C   0  0  0  0  0  0  0  0  0  0  0  0
   -9.5547    3.6826   25.9029 C   0  0  0  0  0  0  0  0  0  0  0  0
   -7.5880    6.4104   27.6699 C   0  0  0  0  0  0  0  0  0  0  0  0
   -8.3224    7.4666   27.2559 N   0  0  0  0  0  0  0  0  0  0  0  0
  -10.5354    3.6244   25.0920 F   0  0  0  0  0  0  0  0  0  0  0  0
   -6.6841   -0.8830   27.7963 C   0  0  0  0  0  0  0  0  0  0  0  0
   -7.3111   -1.7651   28.6644 C   0  0  0  0  0  0  0  0  0  0  0  0
   -6.8855   -2.6197   29.3629 C   0  0  0  0  0  0  0  0  0  0  0  0
   -5.4234   -2.7487   29.4544 C   0  0  0  0  0  0  0  0  0  0  0  0
   -4.6745   -1.8689   28.6761 C   0  0  0  0  0  0  0  0  0  0  0  0
   -5.2575   -0.8622   28.0036 C   0  0  0  0  0  0  0  0  0  0  0  0
   -4.2507    0.0814   26.9794 Cl  0  0  0  0  0  0  0  0  0  0  0  0
   -6.6585    6.4965   28.3867 O   0  0  0  0  0  0  0  0  0  0  0  0
   -7.6991   -3.5614   30.2324 C   0  0  1  0  0  0  0  0  0  0  0  0
   -7.6634   -3.6299   31.4242 N   0  0  0  0  0  0  0  0  0  0  0  0
   -8.2108   -2.8430   32.2474 C   0  0  0  0  0  0  0  0  0  0  0  0
   -9.2511   -2.4227   32.3720 C   0  0  0  0  0  0  0  0  0  0  0  0
  -10.3159   -2.8710   31.5440 C   0  0  0  0  0  0  0  0  0  0  0  0
  -10.1285   -3.4008   30.2829 C   0  0  0  0  0  0  0  0  0  0  0  0
   -8.9695   -3.6052   29.6334 C   0  0  0  0  0  0  0  0  0  0  0  0
   -6.8158   -4.8242   31.8174 C   0  0  0  0  0  0  0  0  0  0  0  0
   -6.8282   -5.9343   31.2807 C   0  0  0  0  0  0  0  0  0  0  0  0
   -6.7845   -4.8748   33.3989 C   0  0  0  0  0  0  0  0  0  0  0  0
   -6.3229   -5.9449   33.9081 C   0  0  0  0  0  0  0  0  0  0  0  0
   -6.1176   -7.0955   31.7651 C   0  0  0  0  0  0  0  0  0  0  0  0
   -6.2644   -7.2031   33.2042 C   0  0  0  0  0  0  0  0  0  0  0  0
   -7.3394   -6.1642   29.9544 C   0  0  0  0  0  0  0  0  0  0  0  0
   -8.3253   -6.8665   29.7782 C   0  0  0  0  0  0  0  0  0  0  0  0
   -8.8508   -7.1492   28.4850 C   0  0  0  0  0  0  0  0  0  0  0  0
   -8.2522   -6.5805   27.3899 C   0  0  0  0  0  0  0  0  0  0  0  0
   -7.0805   -5.8042   27.5675 C   0  0  0  0  0  0  0  0  0  0  0  0
   -6.5669   -5.5916   28.8670 C   0  0  0  0  0  0  0  0  0  0  0  0
  8 11  1  0
 11 12  1  0
 10 13  1  0
  4 14  1  0
 19 20  1  0
 11 21  2  0
 22 16  1  1
 22 23  1  0
 23 24  1  0
 24 25  2  0
 25 26  1  0
 26 27  2  0
 22 28  1  0
 27 28  1  0
 23 29  1  0
 30 35  1  0
 29 30  2  0
 30 33  1  0
 33 34  2  0
 34 32  1  0
 32 31  2  0
 31 29  1  0
 35 36  2  0
 36 37  1  0
 37 38  2  0
 38 39  1  0
 39 40  2  0
 40 35  1  0
 14 15  2  0
 15 16  1  0
 16 17  2  0
 17 18  1  0
 18 19  2  0
 19 14  1  0
  2  3  1  0
  3  4  2  0
  4  7  1  0
  7  6  2  0
  6  5  1  0
  1  2  2  0
  2  5  1  0
  5 10  2  0
 10  9  1  0
  9  8  2  0
  8  1  1  0
M  END
$$$$
