No_6842-complexes_sdf/6BKW-FPZ/2024-09-17-14-21-01/
     RDKit          3D

 24 26  0  0  0  0  0  0  0  0999 V2000
   -7.7129    4.2099   27.0854 C   0  0  0  0  0  0  0  0  0  0  0  0
   -7.7814    5.1722   27.8972 C   0  0  0  0  0  0  0  0  0  0  0  0
   -8.8998    3.8713   26.3707 C   0  0  0  0  0  0  0  0  0  0  0  0
   -8.9563    2.6796   25.5490 C   0  0  0  0  0  0  0  0  0  0  0  0
   -8.8501    6.0071   27.8467 N   0  0  0  0  0  0  0  0  0  0  0  0
   -9.9490    5.7837   27.2002 C   0  0  0  0  0  0  0  0  0  0  0  0
   -9.9821    4.6597   26.4501 C   0  0  0  0  0  0  0  0  0  0  0  0
   -9.8040    2.5482   24.5570 N   0  0  0  0  0  0  0  0  0  0  0  0
   -9.7687    1.5309   23.7027 C   0  0  0  0  0  0  0  0  0  0  0  0
   -8.1862    1.6623   25.8043 N   0  0  0  0  0  0  0  0  0  0  0  0
   -8.1345    0.5640   25.0595 C   0  0  0  0  0  0  0  0  0  0  0  0
   -8.9767    0.4750   23.9724 C   0  0  0  0  0  0  0  0  0  0  0  0
   -6.6528    5.4658   28.6062 N   0  0  0  0  0  0  0  0  0  0  0  0
   -8.9402   -0.6930   23.0668 C   0  0  0  0  0  0  0  0  0  0  0  0
   -7.8308   -0.9876   22.6679 F   0  0  0  0  0  0  0  0  0  0  0  0
   -9.6710   -0.3583   21.9208 F   0  0  0  0  0  0  0  0  0  0  0  0
   -9.5648   -1.7187   23.6148 F   0  0  0  0  0  0  0  0  0  0  0  0
   -7.3928   -0.4949   25.2574 N   0  0  0  0  0  0  0  0  0  0  0  0
   -6.6846   -0.6392   26.5081 C   0  0  0  0  0  0  0  0  0  0  0  0
   -7.2472   -0.6517   27.5892 C   0  0  0  0  0  0  0  0  0  0  0  0
   -6.5638   -1.0675   28.7658 C   0  0  0  0  0  0  0  0  0  0  0  0
   -5.2281   -0.3303   26.5314 C   0  0  0  0  0  0  0  0  0  0  0  0
   -4.4362   -0.5276   27.5909 C   0  0  0  0  0  0  0  0  0  0  0  0
   -5.1630   -0.8003   28.8305 C   0  0  0  0  0  0  0  0  0  0  0  0
  3  4  1  0
  2 13  1  0
 12 14  1  0
 14 15  1  0
 14 16  1  0
 14 17  1  0
 11 18  1  0
 18 19  1  0
  4  8  2  0
  8  9  1  0
  9 12  2  0
 12 11  1  0
 11 10  2  0
 10  4  1  0
 19 20  2  0
 20 21  1  0
 21 24  2  0
 24 23  1  0
 23 22  2  0
 22 19  1  0
  1  2  2  0
  2  5  1  0
  5  6  2  0
  6  7  1  0
  7  3  2  0
  3  1  1  0
M  END
$$$$
