No_6500-complexes_sdf/6BKW-FPZ/2024-09-17-14-21-01/
     RDKit          3D

 12 13  0  0  0  0  0  0  0  0999 V2000
   -7.7129    4.2099   27.0854 C   0  0  0  0  0  0  0  0  0  0  0  0
   -8.2112    3.0637   26.9225 C   0  0  0  0  0  0  0  0  0  0  0  0
   -8.4224    5.2106   27.8516 C   0  0  0  0  0  0  0  0  0  0  0  0
   -9.3720    2.7081   27.2300 C   0  0  0  0  0  0  0  0  0  0  0  0
   -9.7994    4.9763   28.0403 C   0  0  0  0  0  0  0  0  0  0  0  0
  -10.2691    3.6888   27.7912 C   0  0  0  0  0  0  0  0  0  0  0  0
  -11.6833    3.3580   28.1356 C   0  0  0  0  0  0  0  0  0  0  0  0
  -12.4722    3.0742   27.2291 C   0  0  0  0  0  0  0  0  0  0  0  0
  -13.8696    2.7310   27.5856 C   0  0  0  0  0  0  0  0  0  0  0  0
  -14.2490    2.7170   28.9355 C   0  0  0  0  0  0  0  0  0  0  0  0
  -13.3308    3.0004   29.9190 C   0  0  0  0  0  0  0  0  0  0  0  0
  -12.0182    3.3363   29.6174 C   0  0  0  0  0  0  0  0  0  0  0  0
  6  7  1  0
  1  2  2  0
  2  4  1  0
  4  6  2  0
  6  5  1  0
  5  3  2  0
  3  1  1  0
  7  8  2  0
  8  9  1  0
  9 10  2  0
 10 11  1  0
 11 12  2  0
 12  7  1  0
M  END
$$$$
