No_6604-complexes_sdf/6BKW-FPZ/2024-09-17-14-21-01/
     RDKit          3D

 14 15  0  0  0  0  0  0  0  0999 V2000
   -7.7129    4.2099   27.0854 C   0  0  0  0  0  0  0  0  0  0  0  0
   -7.7814    5.1722   27.8972 C   0  0  0  0  0  0  0  0  0  0  0  0
   -7.2983    2.9533   27.5684 C   0  0  0  0  0  0  0  0  0  0  0  0
   -6.9398    2.0472   26.9820 C   0  0  0  0  0  0  0  0  0  0  0  0
   -6.2939    0.9312   27.6216 C   0  0  0  0  0  0  0  0  0  0  0  0
   -6.4939   -0.3829   27.4073 C   0  0  0  0  0  0  0  0  0  0  0  0
   -5.8878   -1.3144   28.2074 C   0  0  0  0  0  0  0  0  0  0  0  0
   -4.8643   -0.9174   29.0851 C   0  0  0  0  0  0  0  0  0  0  0  0
   -4.5113    0.4034   29.2406 C   0  0  0  0  0  0  0  0  0  0  0  0
   -5.1320    1.3484   28.5049 C   0  0  0  0  0  0  0  0  0  0  0  0
   -8.1812    6.4883   27.3687 C   0  0  0  0  0  0  0  0  0  0  0  0
   -8.9663    6.6261   26.1951 C   0  0  0  0  0  0  0  0  0  0  0  0
   -9.1148    5.3881   25.4903 C   0  0  0  0  0  0  0  0  0  0  0  0
   -8.5985    4.1761   25.9817 C   0  0  0  0  0  0  0  0  0  0  0  0
  1  3  1  0
  3  4  1  0
  4  5  1  0
  1  2  2  0
  2 11  1  0
 11 12  2  0
 12 13  1  0
 13 14  2  0
 14  1  1  0
  5  6  2  0
  6  7  1  0
  7  8  2  0
  8  9  1  0
  9 10  2  0
 10  5  1  0
M  END
$$$$
