No_6212-complexes_sdf/6BKW-FPZ/2024-09-17-14-21-01/
     RDKit          3D

 16 18  0  0  0  0  0  0  0  0999 V2000
   -7.2496    3.8871   27.4508 C   0  0  0  0  0  0  0  0  0  0  0  0
   -8.5096    4.0291   27.2770 C   0  0  0  0  0  0  0  0  0  0  0  0
   -9.2669    5.1645   27.5845 C   0  0  0  0  0  0  0  0  0  0  0  0
  -10.6621    5.2321   27.4284 C   0  0  0  0  0  0  0  0  0  0  0  0
   -9.2831    2.8719   26.7564 C   0  0  0  0  0  0  0  0  0  0  0  0
   -8.5831    1.7059   26.4529 C   0  0  0  0  0  0  0  0  0  0  0  0
   -6.5099    4.9902   28.1081 C   0  0  0  0  0  0  0  0  0  0  0  0
   -9.1336    0.8910   25.4859 C   0  0  0  0  0  0  0  0  0  0  0  0
  -11.3546    4.1405   26.9352 C   0  0  1  0  0  0  0  0  0  0  0  0
  -10.6816    2.9985   26.5916 C   0  0  0  0  0  0  0  0  0  0  0  0
  -10.0440    1.2923   24.7268 C   0  0  0  0  0  0  0  0  0  0  0  0
  -11.2805    2.1969   25.5467 C   0  0  0  0  0  0  0  0  0  0  0  0
  -12.5148    2.2931   25.0099 C   0  0  2  0  0  0  0  0  0  0  0  0
  -12.7610    3.1813   24.0067 C   0  0  0  0  0  0  0  0  0  0  0  0
  -13.3586    2.6672   26.2407 C   0  0  0  0  0  0  0  0  0  0  0  0
  -12.8315    4.0577   26.8582 C   0  0  0  0  0  0  0  0  0  0  0  0
  1  2  2  3
  2  3  1  0
  3  4  1  0
  2  5  1  0
  1  7  1  0
  9  4  1  1
  9 10  1  0
 12 13  1  0
 13 14  1  6
 13 15  1  0
  9 16  1  0
 15 16  1  0
  5  6  2  0
  6  8  1  0
  8 11  2  0
 11 12  1  0
 12 10  2  0
 10  5  1  0
M  END
$$$$
