No_6121-complexes_sdf/6BKW-FPZ/2024-09-17-14-21-01/
     RDKit          3D

 21 23  0  0  0  0  0  0  0  0999 V2000
   -7.9040    3.9820   27.1177 C   0  0  0  0  0  0  0  0  0  0  0  0
   -7.8663    4.8694   27.9238 C   0  0  0  0  0  0  0  0  0  0  0  0
   -7.4547    2.7080   27.4594 C   0  0  0  0  0  0  0  0  0  0  0  0
   -6.1474    2.6388   27.8014 C   0  0  0  0  0  0  0  0  0  0  0  0
   -6.4478    5.1007   28.3789 C   0  0  0  0  0  0  0  0  0  0  0  0
   -5.6547    3.9634   28.3883 C   0  0  0  0  0  0  0  0  0  0  0  0
   -9.2406    3.9237   26.3337 C   0  0  0  0  0  0  0  0  0  0  0  0
   -9.8943    5.0323   26.1130 C   0  0  0  0  0  0  0  0  0  0  0  0
   -9.4962    2.8218   25.4244 C   0  0  0  0  0  0  0  0  0  0  0  0
  -10.7133    2.3980   25.4288 C   0  0  0  0  0  0  0  0  0  0  0  0
  -11.6693    3.5334   25.2236 C   0  0  0  0  0  0  0  0  0  0  0  0
  -11.3676    4.7803   25.9017 C   0  0  0  0  0  0  0  0  0  0  0  0
   -5.1675    1.5701   28.0029 C   0  0  0  0  0  0  0  0  0  0  0  0
   -4.1267    1.4856   28.1222 N   0  0  0  0  0  0  0  0  0  0  0  0
   -5.9119    0.1873   27.8264 C   0  0  0  0  0  0  0  0  0  0  0  0
   -7.0771   -0.0724   27.3451 C   0  0  0  0  0  0  0  0  0  0  0  0
   -7.4794   -1.2376   27.2601 C   0  0  0  0  0  0  0  0  0  0  0  0
   -6.7461   -2.2712   27.7527 C   0  0  0  0  0  0  0  0  0  0  0  0
   -5.2771   -1.0396   28.2519 C   0  0  0  0  0  0  0  0  0  0  0  0
   -5.5978   -2.1389   28.2855 C   0  0  0  0  0  0  0  0  0  0  0  0
   -4.7846   -3.2543   28.8219 C   0  0  0  0  0  0  0  0  0  0  0  0
  1  7  1  0
  4 13  1  0
 13 14  2  0
 13 15  1  0
 15 16  1  0
 16 17  2  0
 17 18  1  0
 15 19  1  0
 18 19  2  0
 19 20  1  0
 20 21  1  0
  7  8  2  0
  8 12  1  0
 12 11  2  0
 11 10  1  0
 10  9  2  0
  9  7  1  0
  1  2  2  0
  2  5  1  0
  5  6  2  0
  6  4  1  0
  4  3  2  0
  3  1  1  0
M  END
$$$$
