No_6264-complexes_sdf/6BKW-FPZ/2024-09-17-14-21-01/
     RDKit          3D

 32 36  0  0  0  0  0  0  0  0999 V2000
   -7.2496    3.8871   27.4508 C   0  0  0  0  0  0  0  0  0  0  0  0
   -7.6161    2.7143   27.1523 C   0  0  0  0  0  0  0  0  0  0  0  0
   -7.1619    1.8631   27.5232 C   0  0  0  0  0  0  0  0  0  0  0  0
   -8.0384    5.0866   27.3232 C   0  0  0  0  0  0  0  0  0  0  0  0
   -9.1223    5.1097   26.4856 C   0  0  0  0  0  0  0  0  0  0  0  0
   -8.9382    2.7290   26.5134 C   0  0  0  0  0  0  0  0  0  0  0  0
   -9.4788    1.4415   26.1106 C   0  0  0  0  0  0  0  0  0  0  0  0
   -9.6548    3.8743   26.1530 C   0  0  0  0  0  0  0  0  0  0  0  0
   -7.5095    0.4253   27.2199 C   0  0  0  0  0  0  0  0  0  0  0  0
   -8.7101    0.3123   26.5126 C   0  0  0  0  0  0  0  0  0  0  0  0
   -7.4430    6.4309   27.7785 C   0  0  0  0  0  0  0  0  0  0  0  0
  -10.8436    3.8343   25.3315 C   0  0  0  0  0  0  0  0  0  0  0  0
  -12.0526    3.6902   25.9122 C   0  0  0  0  0  0  0  0  0  0  0  0
  -10.7916    3.9190   23.9246 C   0  0  0  0  0  0  0  0  0  0  0  0
  -11.8189    3.9367   23.0703 C   0  0  0  0  0  0  0  0  0  0  0  0
  -13.2515    3.7798   25.1420 C   0  0  0  0  0  0  0  0  0  0  0  0
  -13.0987    3.9448   23.7596 C   0  0  0  0  0  0  0  0  0  0  0  0
   -9.2262   -1.0052   26.1769 C   0  0  0  0  0  0  0  0  0  0  0  0
   -8.9015   -1.4747   25.0862 C   0  0  0  0  0  0  0  0  0  0  0  0
   -8.0983   -0.7427   24.1730 C   0  0  0  0  0  0  0  0  0  0  0  0
   -8.2060   -0.3838   23.1104 C   0  0  0  0  0  0  0  0  0  0  0  0
   -9.4534   -0.4152   22.3419 C   0  0  0  0  0  0  0  0  0  0  0  0
   -9.5298    0.1109   21.1387 C   0  0  0  0  0  0  0  0  0  0  0  0
  -10.7548   -0.0167   20.4414 C   0  0  0  0  0  0  0  0  0  0  0  0
  -11.7993   -0.6946   21.0050 C   0  0  0  0  0  0  0  0  0  0  0  0
  -11.6815   -1.2096   22.2484 C   0  0  0  0  0  0  0  0  0  0  0  0
  -10.5331   -1.0855   22.9251 C   0  0  0  0  0  0  0  0  0  0  0  0
  -10.1187   -1.6579   27.0997 C   0  0  0  0  0  0  0  0  0  0  0  0
  -10.7478   -2.6962   26.9137 C   0  0  0  0  0  0  0  0  0  0  0  0
  -10.3445   -3.3356   25.6356 C   0  0  0  0  0  0  0  0  0  0  0  0
   -9.4752   -2.7605   24.7714 C   0  0  0  0  0  0  0  0  0  0  0  0
   -7.0071    0.1538   22.2837 C   0  0  0  0  0  0  0  0  0  0  0  0
  4 11  1  0
  8 12  1  0
 10 18  1  0
 19 20  1  0
 20 21  2  3
 21 22  1  0
 21 32  1  0
  1  2  2  0
  6  8  2  0
  8  5  1  0
  5  4  2  0
  4  1  1  0
 22 23  2  0
 23 24  1  0
 24 25  2  0
 25 26  1  0
 26 27  2  0
 27 22  1  0
  2  3  1  0
  3  9  2  0
  9 10  1  0
 10  7  2  0
  7  6  1  0
  6  2  1  0
 12 13  2  0
 13 16  1  0
 16 17  2  0
 17 15  1  0
 15 14  2  0
 14 12  1  0
 18 19  2  0
 19 31  1  0
 31 30  2  0
 30 29  1  0
 29 28  2  0
 28 18  1  0
M  END
$$$$
