No_6927-complexes_sdf/6BKW-FPZ/2024-09-17-14-21-01/
     RDKit          3D

 16 17  0  0  0  0  0  0  0  0999 V2000
   -7.9040    3.9820   27.1177 C   0  0  0  0  0  0  0  0  0  0  0  0
   -8.2057    2.8231   26.8733 C   0  0  0  0  0  0  0  0  0  0  0  0
   -8.7695    5.0740   26.7916 C   0  0  0  0  0  0  0  0  0  0  0  0
   -8.4337    6.4678   27.0913 C   0  0  0  0  0  0  0  0  0  0  0  0
   -9.3742    2.4311   26.2346 C   0  0  0  0  0  0  0  0  0  0  0  0
  -10.2395    3.4267   25.8887 C   0  0  0  0  0  0  0  0  0  0  0  0
   -9.9567    4.7548   26.1374 C   0  0  0  0  0  0  0  0  0  0  0  0
   -8.0651    6.7859   28.2044 O   0  0  0  0  0  0  0  0  0  0  0  0
   -8.3828    7.3263   26.0936 O   0  0  0  0  0  0  0  0  0  0  0  0
   -7.4552    1.5340   27.2313 C   0  0  0  0  0  0  0  0  0  0  0  0
   -6.1242    1.7609   27.7718 C   0  0  0  0  0  0  0  0  0  0  0  0
   -5.3181    0.6519   28.1488 C   0  0  0  0  0  0  0  0  0  0  0  0
   -5.8490   -0.5986   27.9857 C   0  0  0  0  0  0  0  0  0  0  0  0
   -7.9258    0.2358   27.1963 C   0  0  0  0  0  0  0  0  0  0  0  0
   -9.2637    0.0601   26.8045 C   0  0  0  0  0  0  0  0  0  0  0  0
   -9.9319    1.1215   26.2305 C   0  0  0  0  0  0  0  0  0  0  0  0
  3  4  1  0
  4  8  2  0
  4  9  1  0
 10 11  1  0
 11 12  2  3
 12 13  1  0
  5 16  1  0
 16 15  2  0
 15 14  1  0
 14 10  2  0
 10  2  1  0
  1  2  2  0
  2  5  1  0
  5  6  2  0
  6  7  1  0
  7  3  2  0
  3  1  1  0
M  END
$$$$
