No_6170-complexes_sdf/6BKW-FPZ/2024-09-17-14-21-01/
     RDKit          3D

 27 30  0  0  0  0  0  0  0  0999 V2000
   -7.2496    3.8871   27.4508 C   0  0  0  0  0  0  0  0  0  0  0  0
   -7.6161    2.7143   27.1523 C   0  0  0  0  0  0  0  0  0  0  0  0
   -8.8302    2.4659   26.5056 C   0  0  0  0  0  0  0  0  0  0  0  0
   -8.2285    4.9014   27.4656 C   0  0  0  0  0  0  0  0  0  0  0  0
   -9.4645    4.7252   26.9929 C   0  0  0  0  0  0  0  0  0  0  0  0
   -9.7855    3.4868   26.5498 C   0  0  0  0  0  0  0  0  0  0  0  0
   -7.8045    6.1523   27.9813 O   0  0  0  0  0  0  0  0  0  0  0  0
   -8.9725    1.0074   26.1170 C   0  0  0  0  0  0  0  0  0  0  0  0
   -9.3710    0.8520   24.8875 C   0  0  0  0  0  0  0  0  0  0  0  0
   -9.4866   -0.5026   24.3543 C   0  0  0  0  0  0  0  0  0  0  0  0
   -9.2151   -1.5501   25.1747 C   0  0  0  0  0  0  0  0  0  0  0  0
   -8.6799   -0.1210   26.8621 C   0  0  0  0  0  0  0  0  0  0  0  0
   -8.8074   -1.3241   26.5110 C   0  0  0  0  0  0  0  0  0  0  0  0
   -7.6020    7.1500   26.9806 C   0  0  0  0  0  0  0  0  0  0  0  0
   -9.3965   -2.8348   24.6489 N   0  0  0  0  0  0  0  0  0  0  0  0
   -9.2722   -3.8341   25.3071 C   0  0  0  0  0  0  0  0  0  0  0  0
   -8.8955   -3.6929   26.6621 C   0  0  0  0  0  0  0  0  0  0  0  0
   -8.6352   -2.4982   27.3198 C   0  0  0  0  0  0  0  0  0  0  0  0
   -9.4256   -5.0556   24.8157 N   0  0  0  0  0  0  0  0  0  0  0  0
   -9.4212   -6.1813   25.4948 C   0  0  0  0  0  0  0  0  0  0  0  0
   -9.0638   -6.1031   26.8735 C   0  0  0  0  0  0  0  0  0  0  0  0
   -8.7923   -4.9319   27.5489 C   0  0  0  0  0  0  0  0  0  0  0  0
   -8.2315   -2.3091   28.7214 C   0  0  2  0  0  0  0  0  0  0  0  0
   -6.9459   -2.1389   29.1100 C   0  0  0  0  0  0  0  0  0  0  0  0
   -6.5736   -2.1983   30.4520 C   0  0  0  0  0  0  0  0  0  0  0  0
   -7.6028   -2.4626   31.4287 C   0  0  0  0  0  0  0  0  0  0  0  0
   -9.0091   -2.7884   29.6835 F   0  0  0  0  0  0  0  0  0  0  0  0
  4  7  1  0
  3  8  1  0
  7 14  1  0
 18 23  1  0
 23 24  1  0
 24 25  2  3
 25 26  1  0
 23 27  1  1
 17 22  1  0
 22 21  2  0
 21 20  1  0
 20 19  2  0
 19 16  1  0
 13 18  1  0
 18 17  2  0
 17 16  1  0
 16 15  2  0
 15 11  1  0
  1  2  2  0
  2  3  1  0
  3  6  2  0
  6  5  1  0
  5  4  2  0
  4  1  1  0
  8  9  2  0
  9 10  1  0
 10 11  2  0
 11 13  1  0
 13 12  2  0
 12  8  1  0
M  END
$$$$
