No_6407-complexes_sdf/6BKW-FPZ/2024-09-17-14-21-01/
     RDKit          3D

 33 37  0  0  0  0  0  0  0  0999 V2000
   -7.7129    4.2099   27.0854 C   0  0  0  0  0  0  0  0  0  0  0  0
   -7.7814    5.1722   27.8972 C   0  0  0  0  0  0  0  0  0  0  0  0
   -7.3155    2.9700   27.6145 C   0  0  0  0  0  0  0  0  0  0  0  0
   -7.6814    1.8188   26.9581 C   0  0  0  0  0  0  0  0  0  0  0  0
   -8.6377    1.9131   25.9324 C   0  0  0  0  0  0  0  0  0  0  0  0
   -9.1866    3.0673   25.6037 C   0  0  0  0  0  0  0  0  0  0  0  0
   -8.8394    4.1752   26.2513 C   0  0  0  0  0  0  0  0  0  0  0  0
   -8.1569    6.2584   27.9333 N   0  0  0  0  0  0  0  0  0  0  0  0
  -10.1686    3.1192   24.4687 C   0  0  0  0  0  0  0  0  0  0  0  0
  -10.3325    2.1367   23.5785 C   0  0  0  0  0  0  0  0  0  0  0  0
   -9.5962    0.8983   23.9351 C   0  0  0  0  0  0  0  0  0  0  0  0
   -8.8453    0.7641   25.0548 C   0  0  0  0  0  0  0  0  0  0  0  0
   -6.6136    5.2359   28.8939 N   0  0  0  0  0  0  0  0  0  0  0  0
   -9.1394    6.4905   26.9644 C   0  0  0  0  0  0  0  0  0  0  0  0
   -9.5320    5.4645   26.1123 C   0  0  0  0  0  0  0  0  0  0  0  0
   -9.9199   -0.0669   23.0272 O   0  0  0  0  0  0  0  0  0  0  0  0
   -8.9794   -0.8975   22.7287 C   0  0  0  0  0  0  0  0  0  0  0  0
   -7.9187   -0.9116   23.0122 C   0  0  0  0  0  0  0  0  0  0  0  0
   -9.5794   -1.9680   21.8138 C   0  0  0  0  0  0  0  0  0  0  0  0
   -6.8859   -1.9198   22.5094 C   0  0  0  0  0  0  0  0  0  0  0  0
   -8.6595   -2.9005   21.2354 C   0  0  0  0  0  0  0  0  0  0  0  0
   -7.3260   -2.8548   21.6426 C   0  0  0  0  0  0  0  0  0  0  0  0
   -6.3711   -3.8207   21.0659 C   0  0  0  0  0  0  0  0  0  0  0  0
   -5.7885   -3.5838   20.1994 O   0  0  0  0  0  0  0  0  0  0  0  0
   -6.2973   -4.9461   21.7281 O   0  0  0  0  0  0  0  0  0  0  0  0
   -6.9973    0.5079   27.2490 C   0  0  0  0  0  0  0  0  0  0  0  0
   -5.6554    0.3116   27.0560 C   0  0  0  0  0  0  0  0  0  0  0  0
   -5.0142   -0.4094   27.9927 C   0  0  0  0  0  0  0  0  0  0  0  0
   -3.5550   -0.3307   28.2016 C   0  0  0  0  0  0  0  0  0  0  0  0
   -2.8412    0.2726   27.1380 C   0  0  0  0  0  0  0  0  0  0  0  0
   -3.5019    1.0139   26.2037 C   0  0  0  0  0  0  0  0  0  0  0  0
   -4.8257    1.0118   26.1977 C   0  0  0  0  0  0  0  0  0  0  0  0
   -7.7067   -0.3327   27.9475 O   0  0  0  0  0  0  0  0  0  0  0  0
  2 13  1  0
 11 16  1  0
 16 17  1  0
 22 23  1  0
 23 24  2  0
 23 25  1  0
  4 26  1  0
 26 27  1  0
 26 33  2  0
 17 18  2  0
 18 20  1  0
 20 22  2  0
 22 21  1  0
 21 19  2  0
 19 17  1  0
  1  3  1  0
  3  4  2  0
  4  5  1  0
  6  7  1  0
 27 28  2  0
 28 29  1  0
 29 30  2  0
 30 31  1  0
 31 32  2  0
 32 27  1  0
  1  2  2  0
  2  8  1  0
  8 14  2  0
 14 15  1  0
 15  7  2  0
  7  1  1  0
  5  6  2  0
  6  9  1  0
  9 10  2  0
 10 11  1  0
 11 12  2  0
 12  5  1  0
M  END
$$$$
