No_6458-complexes_sdf/6BKW-FPZ/2024-09-17-14-21-01/
     RDKit          3D

 40 44  0  0  0  0  0  0  0  0999 V2000
   -7.7129    4.2099   27.0854 C   0  0  0  0  0  0  0  0  0  0  0  0
   -8.2112    3.0637   26.9225 C   0  0  0  0  0  0  0  0  0  0  0  0
   -9.4446    2.8304   26.1868 C   0  0  0  0  0  0  0  0  0  0  0  0
   -8.4697    5.3956   26.7238 C   0  0  0  0  0  0  0  0  0  0  0  0
   -9.6172    5.2111   25.9513 C   0  0  0  0  0  0  0  0  0  0  0  0
  -10.0424    3.9782   25.6873 C   0  0  0  0  0  0  0  0  0  0  0  0
   -7.3251    1.9116   27.4398 C   0  0  0  0  0  0  0  0  0  0  0  0
   -7.8344    0.7138   27.4248 N   0  0  0  0  0  0  0  0  0  0  0  0
   -6.1885    2.1144   28.0027 N   0  0  0  0  0  0  0  0  0  0  0  0
   -8.9933    0.2116   27.0458 C   0  0  0  0  0  0  0  0  0  0  0  0
   -8.1900    6.7821   27.0327 C   0  0  0  0  0  0  0  0  0  0  0  0
   -8.5110    7.8033   26.5644 O   0  0  0  0  0  0  0  0  0  0  0  0
   -7.1149    6.8441   27.9989 O   0  0  0  0  0  0  0  0  0  0  0  0
   -5.6080    0.8970   28.2079 C   0  0  0  0  0  0  0  0  0  0  0  0
   -6.6014   -0.0148   27.9614 C   0  0  0  0  0  0  0  0  0  0  0  0
   -4.2810    0.6665   28.7335 C   0  0  0  0  0  0  0  0  0  0  0  0
   -4.1917    0.3281   29.8083 F   0  0  0  0  0  0  0  0  0  0  0  0
   -3.4733    1.8272   28.4800 F   0  0  0  0  0  0  0  0  0  0  0  0
   -3.6702   -0.2374   27.9250 F   0  0  0  0  0  0  0  0  0  0  0  0
   -9.7475   -0.4710   28.0792 C   0  0  0  0  0  0  0  0  0  0  0  0
  -11.0782   -0.8750   27.8252 C   0  0  0  0  0  0  0  0  0  0  0  0
  -11.8989   -1.2787   28.8227 C   0  0  0  0  0  0  0  0  0  0  0  0
  -13.1611   -0.7770   28.9106 C   0  0  0  0  0  0  0  0  0  0  0  0
  -13.9900   -0.9700   30.0514 C   0  0  0  0  0  0  0  0  0  0  0  0
  -13.4882   -1.8179   31.0472 C   0  0  0  0  0  0  0  0  0  0  0  0
  -12.2438   -2.3642   31.0045 C   0  0  0  0  0  0  0  0  0  0  0  0
  -11.4039   -2.0108   29.9569 C   0  0  0  0  0  0  0  0  0  0  0  0
  -11.5498   -0.8628   26.5277 C   0  0  0  0  0  0  0  0  0  0  0  0
  -10.7387   -0.3231   25.4737 C   0  0  0  0  0  0  0  0  0  0  0  0
   -9.4849    0.2597   25.7864 C   0  0  0  0  0  0  0  0  0  0  0  0
  -11.2519    3.7756   24.8455 C   0  0  0  0  0  0  0  0  0  0  0  0
  -12.4817    3.5954   25.2788 C   0  0  0  0  0  0  0  0  0  0  0  0
  -13.5661    3.4332   24.4910 C   0  0  0  0  0  0  0  0  0  0  0  0
  -11.0784    3.9618   23.4499 C   0  0  0  0  0  0  0  0  0  0  0  0
  -12.0798    3.8365   22.5787 C   0  0  0  0  0  0  0  0  0  0  0  0
  -11.8462    3.8936   21.1609 C   0  0  0  0  0  0  0  0  0  0  0  0
  -13.3610    3.5768   23.0591 C   0  0  0  0  0  0  0  0  0  0  0  0
  -11.4039    2.6756   20.6244 F   0  0  0  0  0  0  0  0  0  0  0  0
  -12.9664    4.2046   20.4274 F   0  0  0  0  0  0  0  0  0  0  0  0
  -10.8830    4.8152   20.7918 F   0  0  0  0  0  0  0  0  0  0  0  0
  2  7  1  0
  7  8  1  0
  7  9  2  0
  8 10  1  0
  4 11  1  0
 11 12  2  0
 11 13  1  0
  9 14  1  0
  8 15  1  0
 14 15  2  0
 14 16  1  0
 16 17  1  0
 16 18  1  0
 16 19  1  0
 21 22  1  0
  6 31  1  0
 35 36  1  0
 36 38  1  0
 36 39  1  0
 36 40  1  0
 10 20  2  0
 20 21  1  0
 21 28  2  0
 28 29  1  0
 29 30  2  0
 30 10  1  0
 22 23  2  0
 23 24  1  0
 24 25  2  0
 25 26  1  0
 26 27  2  0
 27 22  1  0
  1  2  2  0
  2  3  1  0
  3  6  2  0
  6  5  1  0
  5  4  2  0
  4  1  1  0
 31 32  2  0
 32 33  1  0
 33 37  2  0
 37 35  1  0
 35 34  2  0
 34 31  1  0
M  END
$$$$
