No_6708-complexes_sdf/6BKW-FPZ/2024-09-17-14-21-01/
     RDKit          3D

 40 45  0  0  0  0  0  0  0  0999 V2000
   -7.9040    3.9820   27.1177 C   0  0  0  0  0  0  0  0  0  0  0  0
   -9.0711    4.3164   27.0630 C   0  0  0  0  0  0  0  0  0  0  0  0
   -9.5294    5.4517   27.7215 C   0  0  0  0  0  0  0  0  0  0  0  0
  -10.0314    3.1095   27.2528 C   0  0  0  0  0  0  0  0  0  0  0  0
  -11.1586    3.2384   27.5987 C   0  0  0  0  0  0  0  0  0  0  0  0
   -7.4582    2.6912   26.8594 N   0  0  0  0  0  0  0  0  0  0  0  0
   -6.2886    2.1026   27.1060 C   0  0  0  0  0  0  0  0  0  0  0  0
   -6.3562    0.7237   27.1092 N   0  0  0  0  0  0  0  0  0  0  0  0
   -5.3450    2.4432   27.7064 N   0  0  0  0  0  0  0  0  0  0  0  0
  -11.6846    4.5272   28.1066 C   0  0  0  0  0  0  0  0  0  0  0  0
  -10.9071    5.5965   28.0005 N   0  0  0  0  0  0  0  0  0  0  0  0
   -5.1780    0.2332   27.5859 C   0  0  0  0  0  0  0  0  0  0  0  0
   -4.4907    1.3327   28.0535 C   0  0  0  0  0  0  0  0  0  0  0  0
   -8.7458    1.9934   26.8021 C   0  0  0  0  0  0  0  0  0  0  0  0
  -12.9713    4.6356   28.4031 N   0  0  0  0  0  0  0  0  0  0  0  0
  -13.6137    3.9030   29.3580 C   0  0  0  0  0  0  0  0  0  0  0  0
  -14.8743    4.2606   29.8657 C   0  0  0  0  0  0  0  0  0  0  0  0
  -15.4770    5.3368   29.2439 C   0  0  0  0  0  0  0  0  0  0  0  0
  -14.8998    6.0819   28.2229 C   0  0  0  0  0  0  0  0  0  0  0  0
  -13.5861    5.7557   27.8690 C   0  0  0  0  0  0  0  0  0  0  0  0
   -8.9994    6.6332   27.5337 F   0  0  0  0  0  0  0  0  0  0  0  0
   -4.8204   -1.1392   27.7515 C   0  0  0  0  0  0  0  0  0  0  0  0
   -5.7050   -1.9752   28.1432 C   0  0  1  0  0  0  0  0  0  0  0  0
   -6.7350   -1.7350   28.8082 C   0  0  0  0  0  0  0  0  0  0  0  0
   -7.7512   -2.6614   29.3626 C   0  0  0  0  0  0  0  0  0  0  0  0
   -7.5059   -3.9542   28.9769 C   0  0  0  0  0  0  0  0  0  0  0  0
   -6.4364   -4.3039   28.2323 C   0  0  0  0  0  0  0  0  0  0  0  0
   -5.5262   -3.3890   27.8550 C   0  0  1  0  0  0  0  0  0  0  0  0
   -6.0952   -2.0566   27.0393 Cl  0  0  0  0  0  0  0  0  0  0  0  0
   -4.4290   -4.0581   27.0377 C   0  0  1  0  0  0  0  0  0  0  0  0
   -4.3995   -3.6149   29.0414 C   0  0  0  0  0  0  0  0  0  0  0  0
   -4.5820   -4.3408   28.0898 Cl  0  0  0  0  0  0  0  0  0  0  0  0
   -4.5655   -4.4035   25.7701 C   0  0  0  0  0  0  0  0  0  0  0  0
   -2.9937   -3.2992   26.8043 C   0  0  0  0  0  0  0  0  0  0  0  0
   -3.1328   -3.5577   29.4715 C   0  0  0  0  0  0  0  0  0  0  0  0
   -2.4642   -3.4153   30.7194 C   0  0  0  0  0  0  0  0  0  0  0  0
   -2.1622   -3.4041   28.2959 C   0  0  0  0  0  0  0  0  0  0  0  0
   -5.0204   -3.0608   30.4693 C   0  0  0  0  0  0  0  0  0  0  0  0
   -4.4325   -3.1591   31.6758 C   0  0  0  0  0  0  0  0  0  0  0  0
   -3.1016   -3.1044   31.7624 C   0  0  0  0  0  0  0  0  0  0  0  0
  1  2  1  0
  1  6  1  0
  6  7  1  0
  7  8  2  0
  7  9  1  0
  8 12  1  0
  9 13  2  0
 12 13  2  0
  4 14  1  0
  6 14  1  0
 10 15  1  0
 15 16  1  0
 17 18  1  0
 15 20  1  0
 19 20  1  0
  3 21  1  0
 12 22  1  0
 22 23  1  0
 23 24  1  0
 24 25  2  3
 25 26  1  0
 26 27  2  3
 27 28  1  0
 23 29  1  6
 28 30  1  0
 28 31  1  0
 28 32  1  6
 30 33  1  6
 30 34  1  0
 34 37  2  0
 35 37  1  0
 16 17  1  0
 18 19  1  0
 31 35  2  0
 35 36  1  0
 36 40  2  0
 40 39  1  0
 39 38  2  0
 38 31  1  0
  2  3  2  0
  3 11  1  0
 11 10  2  0
 10  5  1  0
  5  4  2  0
  4  2  1  0
M  END
$$$$
