No_6781-complexes_sdf/6BKW-FPZ/2024-09-17-14-21-01/
     RDKit          3D

 19 21  0  0  0  0  0  0  0  0999 V2000
   -7.2496    3.8871   27.4508 C   0  0  0  0  0  0  0  0  0  0  0  0
   -7.6161    2.7143   27.1523 C   0  0  0  0  0  0  0  0  0  0  0  0
   -8.6212    2.2239   26.4073 C   0  0  1  0  0  0  0  0  0  0  0  0
   -8.2540    4.9237   27.1711 C   0  0  2  0  0  0  0  0  0  0  0  0
   -9.3729    4.5806   26.4432 C   0  0  0  0  0  0  0  0  0  0  0  0
   -8.9159    0.9340   26.0822 C   0  0  0  0  0  0  0  0  0  0  0  0
   -9.6005    3.2665   26.0851 C   0  0  1  0  0  0  0  0  0  0  0  0
   -7.9330    6.1845   27.5018 F   0  0  0  0  0  0  0  0  0  0  0  0
   -9.2485    0.5671   24.9843 C   0  0  0  0  0  0  0  0  0  0  0  0
   -9.4372    1.6080   23.9401 C   0  0  0  0  0  0  0  0  0  0  0  0
   -9.8981    2.9183   24.4795 C   0  0  0  0  0  0  0  0  0  0  0  0
  -10.4511    3.9680   23.6974 C   0  0  0  0  0  0  0  0  0  0  0  0
  -10.6952    3.8137   22.3868 C   0  0  0  0  0  0  0  0  0  0  0  0
  -10.3277    2.6102   21.7633 C   0  0  0  0  0  0  0  0  0  0  0  0
   -9.8538    1.4413   22.5956 C   0  0  0  0  0  0  0  0  0  0  0  0
  -10.9923    2.8790   26.7050 C   0  0  0  0  0  0  0  0  0  0  0  0
  -11.3169    2.6491   27.7736 C   0  0  0  0  0  0  0  0  0  0  0  0
  -12.3418    2.6382   28.4968 C   0  0  0  0  0  0  0  0  0  0  0  0
  -12.3726    2.4601   29.9901 C   0  0  0  0  0  0  0  0  0  0  0  0
  1  2  1  0
  4  5  1  0
  3  6  1  1
  3  7  1  0
  7  5  1  6
  4  8  1  6
  9 10  1  0
  7 11  1  0
  7 16  1  0
 16 17  2  3
 17 18  1  0
 18 19  2  0
  6  9  1  0
  3  2  1  0
  1  4  1  0
 10 11  2  0
 11 12  1  0
 12 13  2  0
 13 14  1  0
 14 15  2  0
 15 10  1  0
M  END
$$$$
