No_6527-complexes_sdf/6BKW-FPZ/2024-09-17-14-21-01/
     RDKit          3D

 23 25  0  0  0  0  0  0  0  0999 V2000
   -7.2496    3.8871   27.4508 C   0  0  0  0  0  0  0  0  0  0  0  0
   -7.6161    2.7143   27.1523 C   0  0  0  0  0  0  0  0  0  0  0  0
   -8.8302    2.4659   26.5056 C   0  0  0  0  0  0  0  0  0  0  0  0
   -8.1584    5.0090   27.3234 C   0  0  0  0  0  0  0  0  0  0  0  0
   -9.3788    4.7965   26.7695 C   0  0  0  0  0  0  0  0  0  0  0  0
   -9.7028    3.5649   26.3276 C   0  0  0  0  0  0  0  0  0  0  0  0
   -6.7182    1.5519   27.3631 C   0  0  0  0  0  0  0  0  0  0  0  0
   -5.4694    1.7365   28.0694 C   0  0  0  0  0  0  0  0  0  0  0  0
   -4.5986    0.6519   28.2611 C   0  0  0  0  0  0  0  0  0  0  0  0
   -5.0102   -0.6262   27.9715 C   0  0  0  0  0  0  0  0  0  0  0  0
   -7.0481    0.2248   27.1396 C   0  0  0  0  0  0  0  0  0  0  0  0
   -6.2697   -0.8020   27.4256 C   0  0  0  0  0  0  0  0  0  0  0  0
   -7.9118    6.4001   27.7968 C   0  0  0  0  0  0  0  0  0  0  0  0
   -3.0513    0.8200   29.0326 Cl  0  0  0  0  0  0  0  0  0  0  0  0
   -7.5374    7.0615   26.8937 F   0  0  0  0  0  0  0  0  0  0  0  0
   -6.6964    6.3462   28.6354 F   0  0  0  0  0  0  0  0  0  0  0  0
   -8.9371    6.8118   28.3691 F   0  0  0  0  0  0  0  0  0  0  0  0
  -10.9829    3.3511   25.6323 C   0  0  0  0  0  0  0  0  0  0  0  0
  -10.9364    2.9427   24.3957 C   0  0  0  0  0  0  0  0  0  0  0  0
  -12.1338    2.7788   23.6292 C   0  0  0  0  0  0  0  0  0  0  0  0
  -13.3368    3.2605   24.1696 C   0  0  0  0  0  0  0  0  0  0  0  0
  -12.1869    3.9353   26.1162 C   0  0  0  0  0  0  0  0  0  0  0  0
  -13.3287    3.8844   25.4294 C   0  0  0  0  0  0  0  0  0  0  0  0
  2  7  1  0
  4 13  1  0
  9 14  1  0
 13 15  1  0
 13 16  1  0
 13 17  1  0
  6 18  1  0
  7  8  2  0
  8  9  1  0
  9 10  2  0
 10 12  1  0
 12 11  2  0
 11  7  1  0
 18 19  2  0
 19 20  1  0
 20 21  2  0
 21 23  1  0
 23 22  2  0
 22 18  1  0
  1  2  2  0
  2  3  1  0
  3  6  2  0
  6  5  1  0
  5  4  2  0
  4  1  1  0
M  END
$$$$
