No_6133-complexes_sdf/6BKW-FPZ/2024-09-17-14-21-01/
     RDKit          3D

 29 33  0  0  0  0  0  0  0  0999 V2000
   -7.7129    4.2099   27.0854 C   0  0  0  0  0  0  0  0  0  0  0  0
   -8.2112    3.0637   26.9225 C   0  0  0  0  0  0  0  0  0  0  0  0
   -7.5138    1.9223   27.4249 C   0  0  0  0  0  0  0  0  0  0  0  0
   -8.5309    5.4147   26.8151 C   0  0  0  0  0  0  0  0  0  0  0  0
   -9.6817    5.2393   26.1100 C   0  0  0  0  0  0  0  0  0  0  0  0
  -10.1032    3.9957   25.8534 C   0  0  0  0  0  0  0  0  0  0  0  0
   -9.4034    2.8430   26.2573 C   0  0  0  0  0  0  0  0  0  0  0  0
   -6.2445    2.0060   27.8662 N   0  0  0  0  0  0  0  0  0  0  0  0
   -5.5344    0.8568   28.2200 C   0  0  0  0  0  0  0  0  0  0  0  0
   -6.1293   -0.3305   28.0871 C   0  0  0  0  0  0  0  0  0  0  0  0
   -7.9476    0.5786   27.2987 C   0  0  0  0  0  0  0  0  0  0  0  0
   -7.3667   -0.4695   27.7065 C   0  0  0  0  0  0  0  0  0  0  0  0
   -7.9826    6.7654   27.0983 C   0  0  0  0  0  0  0  0  0  0  0  0
   -4.2040    1.1194   28.6656 N   0  0  0  0  0  0  0  0  0  0  0  0
   -8.6544    7.8621   26.7268 N   0  0  0  0  0  0  0  0  0  0  0  0
   -6.8366    6.8886   27.7972 N   0  0  0  0  0  0  0  0  0  0  0  0
   -3.4360    0.1078   29.1721 C   0  0  0  0  0  0  0  0  0  0  0  0
   -2.4364   -0.0877   29.3488 C   0  0  0  0  0  0  0  0  0  0  0  0
   -1.7281   -1.2148   30.0072 C   0  0  0  0  0  0  0  0  0  0  0  0
   -2.5674   -2.2599   30.2892 C   0  0  0  0  0  0  0  0  0  0  0  0
   -4.1674   -1.1750   29.6679 C   0  0  0  0  0  0  0  0  0  0  0  0
   -3.6859   -2.1825   30.2518 C   0  0  0  0  0  0  0  0  0  0  0  0
   -5.6498   -1.1697   29.1496 C   0  0  0  0  0  0  0  0  0  0  0  0
  -11.3619    3.8565   25.0706 C   0  0  0  0  0  0  0  0  0  0  0  0
  -12.5268    3.5931   25.6774 C   0  0  0  0  0  0  0  0  0  0  0  0
  -13.7251    3.6155   25.0125 C   0  0  0  0  0  0  0  0  0  0  0  0
  -11.3273    3.9568   23.6746 C   0  0  0  0  0  0  0  0  0  0  0  0
  -12.4627    3.9987   22.9305 C   0  0  0  0  0  0  0  0  0  0  0  0
  -13.6731    3.8616   23.6036 C   0  0  0  0  0  0  0  0  0  0  0  0
  2  3  1  0
  4 13  1  0
 13 15  2  0
 13 16  1  0
  6 24  1  0
 17 18  1  0
 18 19  2  0
 19 20  1  0
 20 22  2  0
 22 21  1  0
 24 25  2  0
 25 26  1  0
 26 29  2  0
 29 28  1  0
 28 27  2  0
 27 24  1  0
  1  2  2  0
  2  7  1  0
  7  6  2  0
  6  5  1  0
  5  4  2  0
  4  1  1  0
  3  8  2  0
  8  9  1  0
 10 12  1  0
 12 11  2  0
 11  3  1  0
  9 10  2  0
 10 23  1  0
 23 21  2  0
 21 17  1  0
 17 14  2  0
 14  9  1  0
M  END
$$$$
