No_664-complexes_sdf/6BKW-FPZ/2024-09-17-14-21-01/
     RDKit          3D

 14 15  0  0  0  0  0  0  0  0999 V2000
   -7.9040    3.9820   27.1177 C   0  0  0  0  0  0  0  0  0  0  0  0
   -7.8663    4.8694   27.9238 C   0  0  0  0  0  0  0  0  0  0  0  0
   -9.0501    3.8017   26.2617 C   0  0  0  0  0  0  0  0  0  0  0  0
  -10.0189    4.7608   26.3707 C   0  0  0  0  0  0  0  0  0  0  0  0
   -8.6973    5.9722   27.8968 C   0  0  0  0  0  0  0  0  0  0  0  0
   -9.8216    5.8946   27.1241 C   0  0  0  0  0  0  0  0  0  0  0  0
   -9.1313    2.7565   25.4802 F   0  0  0  0  0  0  0  0  0  0  0  0
   -6.9976    2.9125   27.1125 O   0  0  0  0  0  0  0  0  0  0  0  0
   -7.3891    1.5787   27.0957 C   0  0  0  0  0  0  0  0  0  0  0  0
   -6.2840    0.7116   27.2359 C   0  0  0  0  0  0  0  0  0  0  0  0
   -6.5326   -0.6804   27.2670 C   0  0  0  0  0  0  0  0  0  0  0  0
   -7.8665   -1.1054   27.1244 C   0  0  0  0  0  0  0  0  0  0  0  0
   -8.9201   -0.2101   27.0202 C   0  0  0  0  0  0  0  0  0  0  0  0
   -8.6303    1.1651   27.0522 C   0  0  0  0  0  0  0  0  0  0  0  0
  3  7  1  0
  1  8  1  0
  8  9  1  0
  9 10  2  0
 10 11  1  0
 11 12  2  0
 12 13  1  0
 13 14  2  0
 14  9  1  0
  1  2  2  0
  2  5  1  0
  5  6  2  0
  6  4  1  0
  4  3  2  0
  3  1  1  0
M  END
$$$$
