No_618-complexes_sdf/6BKW-FPZ/2024-09-17-14-21-01/
     RDKit          3D

 35 39  0  0  0  0  0  0  0  0999 V2000
   -7.9040    3.9820   27.1177 C   0  0  0  0  0  0  0  0  0  0  0  0
   -7.8663    4.8694   27.9238 C   0  0  0  0  0  0  0  0  0  0  0  0
   -9.0491    3.8523   26.2542 C   0  0  0  0  0  0  0  0  0  0  0  0
   -8.7661    5.9491   27.9690 C   0  0  0  0  0  0  0  0  0  0  0  0
   -9.1798    2.6731   25.4786 C   0  0  0  0  0  0  0  0  0  0  0  0
   -9.8964    5.8854   27.1460 C   0  0  0  0  0  0  0  0  0  0  0  0
   -9.9958    4.8034   26.3470 C   0  0  0  0  0  0  0  0  0  0  0  0
  -10.0250    2.6919   24.3447 C   0  0  0  0  0  0  0  0  0  0  0  0
  -10.8464    3.8605   24.2296 C   0  0  0  0  0  0  0  0  0  0  0  0
  -10.8999    4.7871   25.2230 N   0  0  0  0  0  0  0  0  0  0  0  0
  -11.7949    3.8818   23.3109 N   0  0  0  0  0  0  0  0  0  0  0  0
  -10.1266    1.6856   23.3900 C   0  0  0  0  0  0  0  0  0  0  0  0
   -9.3559    0.5757   23.4450 C   0  0  0  0  0  0  0  0  0  0  0  0
   -9.3631   -0.4194   22.3994 C   0  0  0  0  0  0  0  0  0  0  0  0
  -10.1985   -0.1264   21.3045 C   0  0  0  0  0  0  0  0  0  0  0  0
  -10.9250    1.0454   21.2121 C   0  0  0  0  0  0  0  0  0  0  0  0
  -10.8360    1.9855   22.2277 C   0  0  0  0  0  0  0  0  0  0  0  0
  -11.7292    3.0431   22.2254 C   0  0  0  0  0  0  0  0  0  0  0  0
  -12.5049    3.2716   21.2562 F   0  0  0  0  0  0  0  0  0  0  0  0
   -6.9592    2.9710   27.1908 O   0  0  0  0  0  0  0  0  0  0  0  0
   -7.2402    1.6176   27.5422 C   0  0  0  0  0  0  0  0  0  0  0  0
   -8.3343    0.8948   27.3879 C   0  0  0  0  0  0  0  0  0  0  0  0
   -5.9356    0.9190   27.7695 C   0  0  0  0  0  0  0  0  0  0  0  0
   -5.8733   -0.4093   28.0761 C   0  0  0  0  0  0  0  0  0  0  0  0
   -8.3190   -0.4870   27.7291 C   0  0  0  0  0  0  0  0  0  0  0  0
   -7.0773   -1.1057   28.0523 C   0  0  0  0  0  0  0  0  0  0  0  0
   -4.6437   -1.0249   28.5052 C   0  0  0  0  0  0  0  0  0  0  0  0
   -3.6025   -0.5719   28.1332 N   0  0  0  0  0  0  0  0  0  0  0  0
   -2.9797   -0.9808   27.1060 C   0  0  0  0  0  0  0  0  0  0  0  0
   -3.0787   -0.4917   25.9321 C   0  0  0  0  0  0  0  0  0  0  0  0
   -2.1105   -2.1281   27.2532 C   0  0  0  0  0  0  0  0  0  0  0  0
   -2.9596    0.5926   28.8609 C   0  0  0  0  0  0  0  0  0  0  0  0
   -9.5521   -1.2444   27.6628 C   0  0  0  0  0  0  0  0  0  0  0  0
   -9.9255   -2.0009   28.6382 C   0  0  0  0  0  0  0  0  0  0  0  0
  -11.1966   -2.6643   28.6879 C   0  0  0  0  0  0  0  0  0  0  0  0
  9 11  1  0
  8 12  1  0
 11 18  1  0
 17 18  1  0
 18 19  1  0
  1 20  1  0
 20 21  1  0
 24 27  1  0
 27 28  1  0
 28 29  1  0
 29 30  2  0
 29 31  1  0
 28 32  1  0
 25 33  1  0
 33 34  2  3
 34 35  1  0
 12 13  2  0
 13 14  1  0
 14 15  2  0
 15 16  1  0
 16 17  2  0
 17 12  1  0
  3  5  2  0
  5  8  1  0
  8  9  2  0
  9 10  1  0
 10  7  2  0
  1  2  2  0
  2  4  1  0
  4  6  2  0
  6  7  1  0
  7  3  1  0
  3  1  1  0
 21 22  2  0
 22 25  1  0
 25 26  2  0
 26 24  1  0
 24 23  2  0
 23 21  1  0
M  END
$$$$
