No_6550-complexes_sdf/6BKW-FPZ/2024-09-17-14-21-01/
     RDKit          3D

 25 28  0  0  0  0  0  0  0  0999 V2000
   -7.9040    3.9820   27.1177 C   0  0  0  0  0  0  0  0  0  0  0  0
   -7.8663    4.8694   27.9238 C   0  0  0  0  0  0  0  0  0  0  0  0
   -9.0953    3.1697   27.0532 C   0  0  0  0  0  0  0  0  0  0  0  0
   -9.1405    2.0104   26.1761 C   0  0  0  0  0  0  0  0  0  0  0  0
   -9.0299    5.5381   28.3948 C   0  0  0  0  0  0  0  0  0  0  0  0
  -10.2709    4.9222   28.1362 C   0  0  0  0  0  0  0  0  0  0  0  0
  -10.2487    3.7550   27.4045 C   0  0  0  0  0  0  0  0  0  0  0  0
   -9.8414    1.7696   25.2539 C   0  0  0  0  0  0  0  0  0  0  0  0
   -9.6823    0.6711   24.4184 C   0  0  0  0  0  0  0  0  0  0  0  0
   -7.9542    1.0826   26.2945 C   0  0  0  0  0  0  0  0  0  0  0  0
   -7.7981   -0.0307   25.6621 C   0  0  0  0  0  0  0  0  0  0  0  0
   -8.6766   -0.2244   24.6467 C   0  0  0  0  0  0  0  0  0  0  0  0
  -11.5389    3.0704   27.1742 C   0  0  0  0  0  0  0  0  0  0  0  0
  -11.9784    2.1883   28.0633 C   0  0  0  0  0  0  0  0  0  0  0  0
  -11.6861    2.3725   29.4092 C   0  0  0  0  0  0  0  0  0  0  0  0
  -12.5878    0.9876   27.6085 C   0  0  0  0  0  0  0  0  0  0  0  0
  -12.5709   -0.1722   28.4055 C   0  0  0  0  0  0  0  0  0  0  0  0
  -12.2829    1.3439   30.3353 C   0  0  0  0  0  0  0  0  0  0  0  0
  -12.6926    0.1501   29.8535 C   0  0  0  0  0  0  0  0  0  0  0  0
  -12.6249    4.2009   26.9359 C   0  0  0  0  0  0  0  0  0  0  0  0
  -13.3934    4.1488   25.7877 C   0  0  0  0  0  0  0  0  0  0  0  0
  -14.4337    5.0150   25.6483 C   0  0  0  0  0  0  0  0  0  0  0  0
  -14.8973    5.8061   26.7679 C   0  0  0  0  0  0  0  0  0  0  0  0
  -14.1608    5.6871   28.0007 C   0  0  0  0  0  0  0  0  0  0  0  0
  -13.1315    4.8012   28.1111 C   0  0  0  0  0  0  0  0  0  0  0  0
  3  4  1  0
  7 13  1  0
 13 14  1  0
 13 20  1  0
  4  8  2  0
  8  9  1  0
  9 12  2  0
 12 11  1  0
 11 10  2  0
 10  4  1  0
 14 15  2  0
 15 18  1  0
 18 19  2  0
 19 17  1  0
 17 16  2  0
 16 14  1  0
  1  2  2  0
  2  5  1  0
  5  6  2  0
  6  7  1  0
  7  3  2  0
  3  1  1  0
 20 21  2  0
 21 22  1  0
 22 23  2  0
 23 24  1  0
 24 25  2  0
 25 20  1  0
M  END
$$$$
