No_6084-complexes_sdf/6BKW-FPZ/2024-09-17-14-21-01/
     RDKit          3D

 31 34  0  0  0  0  0  0  0  0999 V2000
   -7.9040    3.9820   27.1177 C   0  0  0  0  0  0  0  0  0  0  0  0
   -8.2057    2.8231   26.8733 C   0  0  0  0  0  0  0  0  0  0  0  0
   -7.4766    1.7477   27.4593 C   0  0  0  0  0  0  0  0  0  0  0  0
   -8.7468    5.1251   26.6967 C   0  0  0  0  0  0  0  0  0  0  0  0
   -9.7234    4.8589   25.8202 C   0  0  0  0  0  0  0  0  0  0  0  0
   -9.9711    3.5858   25.4266 C   0  0  0  0  0  0  0  0  0  0  0  0
   -9.2266    2.4957   25.9600 C   0  0  0  0  0  0  0  0  0  0  0  0
   -6.2367    1.9389   27.9276 N   0  0  0  0  0  0  0  0  0  0  0  0
   -5.2745    0.8792   28.0477 C   0  0  0  0  0  0  0  0  0  0  0  0
   -5.7647   -0.3699   27.9453 C   0  0  0  0  0  0  0  0  0  0  0  0
   -7.7955    0.3758   27.2152 C   0  0  0  0  0  0  0  0  0  0  0  0
   -7.0161   -0.6214   27.5450 C   0  0  0  0  0  0  0  0  0  0  0  0
   -8.6478    6.5340   27.0650 C   0  0  0  0  0  0  0  0  0  0  0  0
   -8.4127    7.5677   26.4000 N   0  0  0  0  0  0  0  0  0  0  0  0
   -4.0718    1.2556   28.5507 N   0  0  0  0  0  0  0  0  0  0  0  0
   -8.0177    6.6414   28.3279 O   0  0  0  0  0  0  0  0  0  0  0  0
   -3.1858    0.2435   28.8586 C   0  0  0  0  0  0  0  0  0  0  0  0
   -3.5603   -1.0696   28.7980 C   0  0  0  0  0  0  0  0  0  0  0  0
   -4.8081   -1.3967   28.3559 C   0  0  0  0  0  0  0  0  0  0  0  0
   -2.5798   -2.0884   29.1659 C   0  0  0  0  0  0  0  0  0  0  0  0
   -2.5228   -2.5653   30.1594 F   0  0  0  0  0  0  0  0  0  0  0  0
   -1.8556   -2.4751   28.1624 F   0  0  0  0  0  0  0  0  0  0  0  0
  -11.0050    3.0977   24.5140 C   0  0  0  0  0  0  0  0  0  0  0  0
  -12.2402    2.8868   24.9443 C   0  0  0  0  0  0  0  0  0  0  0  0
  -13.2806    2.5148   24.0223 C   0  0  0  0  0  0  0  0  0  0  0  0
  -10.7063    3.0106   23.1389 C   0  0  0  0  0  0  0  0  0  0  0  0
  -11.6686    2.7308   22.1875 C   0  0  0  0  0  0  0  0  0  0  0  0
  -12.9583    2.4730   22.6638 C   0  0  0  0  0  0  0  0  0  0  0  0
  -14.6532    2.2619   24.4505 C   0  0  0  0  0  0  0  0  0  0  0  0
  -15.5618    2.0112   23.7378 C   0  0  0  0  0  0  0  0  0  0  0  0
  -15.2487    1.9569   22.2839 C   0  0  0  0  0  0  0  0  0  0  0  0
  2  3  1  0
  4 13  1  0
 13 14  1  0
 13 16  2  0
 18 20  1  0
 20 21  1  0
 20 22  1  0
  6 23  1  0
 25 29  1  0
 29 30  2  3
 30 31  1  0
 23 24  2  0
 24 25  1  0
 25 28  2  0
 28 27  1  0
 27 26  2  0
 26 23  1  0
 10 19  2  0
 19 18  1  0
 18 17  2  0
 17 15  1  0
 15  9  2  0
  3  8  2  0
  8  9  1  0
  9 10  1  0
 10 12  1  0
 12 11  2  0
 11  3  1  0
  1  2  2  0
  2  7  1  0
  7  6  2  0
  6  5  1  0
  5  4  2  0
  4  1  1  0
M  END
$$$$
