No_6742-complexes_sdf/6BKW-FPZ/2024-09-17-14-21-01/
     RDKit          3D

 24 27  0  0  0  0  0  0  0  0999 V2000
   -7.7129    4.2099   27.0854 C   0  0  0  0  0  0  0  0  0  0  0  0
   -8.9133    4.4736   27.0998 C   0  0  0  0  0  0  0  0  0  0  0  0
   -9.4616    5.6470   27.6290 C   0  0  0  0  0  0  0  0  0  0  0  0
   -6.8722    5.1130   27.9248 C   0  0  0  0  0  0  0  0  0  0  0  0
   -7.3801    6.2535   28.4126 C   0  0  0  0  0  0  0  0  0  0  0  0
   -8.6734    6.5530   28.2150 C   0  0  0  0  0  0  0  0  0  0  0  0
   -9.7626    3.4440   26.3353 C   0  0  0  0  0  0  0  0  0  0  0  0
  -10.4757    3.6853   25.4323 C   0  0  0  0  0  0  0  0  0  0  0  0
  -11.2390    2.7887   24.6117 C   0  0  0  0  0  0  0  0  0  0  0  0
  -11.0574    1.4662   24.8808 C   0  0  0  0  0  0  0  0  0  0  0  0
   -9.6267    2.0507   26.4502 C   0  0  0  0  0  0  0  0  0  0  0  0
  -10.2164    1.0905   25.8676 C   0  0  0  0  0  0  0  0  0  0  0  0
  -10.0002   -0.3569   26.1499 C   0  0  0  0  0  0  0  0  0  0  0  0
   -8.9659   -0.6632   26.7959 C   0  0  0  0  0  0  0  0  0  0  0  0
   -8.1729    0.3549   27.5642 C   0  0  0  0  0  0  0  0  0  0  0  0
   -8.3993    1.5888   27.4520 C   0  0  0  0  0  0  0  0  0  0  0  0
  -12.1739    3.3117   23.5690 C   0  0  0  0  0  0  0  0  0  0  0  0
  -13.3675    3.5379   23.8393 C   0  0  0  0  0  0  0  0  0  0  0  0
  -13.9244    3.4191   25.2110 C   0  0  0  0  0  0  0  0  0  0  0  0
  -13.3418    3.0696   26.1481 C   0  0  0  0  0  0  0  0  0  0  0  0
  -13.6634    3.0154   27.3475 C   0  0  0  0  0  0  0  0  0  0  0  0
  -14.9973    3.3824   27.6480 C   0  0  0  0  0  0  0  0  0  0  0  0
  -15.8441    3.8134   26.6199 C   0  0  0  0  0  0  0  0  0  0  0  0
  -15.3207    3.9453   25.3969 C   0  0  0  0  0  0  0  0  0  0  0  0
  2  7  1  0
  9 17  1  0
 17 18  2  3
 18 19  1  0
  7  8  2  0
  8  9  1  0
  9 10  2  0
 10 12  1  0
 11  7  1  0
 11 12  2  0
 12 13  1  0
 13 14  2  0
 14 15  1  0
 15 16  2  0
 16 11  1  0
  1  2  2  0
  2  3  1  0
  3  6  2  0
  6  5  1  0
  5  4  2  0
  4  1  1  0
 19 20  2  0
 20 21  1  0
 21 22  2  0
 22 23  1  0
 23 24  2  0
 24 19  1  0
M  END
$$$$
