No_6651-complexes_sdf/6BKW-FPZ/2024-09-17-14-21-01/
     RDKit          3D

 20 22  0  0  0  0  0  0  0  0999 V2000
   -7.9040    3.9820   27.1177 C   0  0  0  0  0  0  0  0  0  0  0  0
   -7.8663    4.8694   27.9238 C   0  0  0  0  0  0  0  0  0  0  0  0
   -9.0806    3.1428   27.1220 C   0  0  0  0  0  0  0  0  0  0  0  0
  -10.0970    3.3939   27.9555 C   0  0  0  0  0  0  0  0  0  0  0  0
   -8.9263    5.4490   28.6197 C   0  0  0  0  0  0  0  0  0  0  0  0
  -11.3072    2.6464   28.0375 C   0  0  0  0  0  0  0  0  0  0  0  0
  -10.0549    4.6064   28.7254 C   0  0  0  0  0  0  0  0  0  0  0  0
  -11.1794    1.3091   27.8758 C   0  0  0  0  0  0  0  0  0  0  0  0
  -12.0767    0.4064   28.4708 C   0  0  0  0  0  0  0  0  0  0  0  0
  -11.8597   -0.9990   28.3658 C   0  0  0  0  0  0  0  0  0  0  0  0
  -10.6974   -1.4188   27.7183 C   0  0  0  0  0  0  0  0  0  0  0  0
   -9.7852   -0.5847   27.2102 C   0  0  0  0  0  0  0  0  0  0  0  0
   -9.8893    0.7123   27.2792 C   0  0  0  0  0  0  0  0  0  0  0  0
   -8.9349    1.6554   26.7890 C   0  0  0  0  0  0  0  0  0  0  0  0
   -7.4899    1.1984   27.0214 C   0  0  0  0  0  0  0  0  0  0  0  0
   -9.2227    1.7366   25.2098 C   0  0  1  0  0  0  0  0  0  0  0  0
   -9.7341    2.8746   24.6457 C   0  0  0  0  0  0  0  0  0  0  0  0
   -8.7983    0.6763   24.4094 C   0  0  0  0  0  0  0  0  0  0  0  0
   -9.9670    4.1145   25.0988 C   0  0  0  0  0  0  0  0  0  0  0  0
  -10.5129    5.0990   24.0695 C   0  0  0  0  0  0  0  0  0  0  0  0
  4  6  1  0
  6  8  1  0
  3 14  1  0
 13 14  1  0
 14 15  1  0
 14 16  1  0
 16 17  1  0
 16 18  1  6
 17 19  2  3
 19 20  1  0
  8  9  2  0
  9 10  1  0
 10 11  2  0
 11 12  1  0
 12 13  2  0
 13  8  1  0
  1  2  2  0
  2  5  1  0
  5  7  2  0
  7  4  1  0
  4  3  2  0
  3  1  1  0
M  END
$$$$
