No_6450-complexes_sdf/6BKW-FPZ/2024-09-17-14-21-01/
     RDKit          3D

 17 18  0  0  0  0  0  0  0  0999 V2000
   -7.2496    3.8871   27.4508 C   0  0  0  0  0  0  0  0  0  0  0  0
   -8.5096    4.0291   27.2770 C   0  0  0  0  0  0  0  0  0  0  0  0
   -9.2677    5.1714   27.5773 C   0  0  0  0  0  0  0  0  0  0  0  0
   -9.2765    2.8248   26.8371 C   0  0  0  0  0  0  0  0  0  0  0  0
   -8.6731    1.7312   26.5464 C   0  0  0  0  0  0  0  0  0  0  0  0
   -6.5170    4.9402   28.0110 N   0  0  0  0  0  0  0  0  0  0  0  0
   -7.2532    1.5736   26.8370 C   0  0  0  0  0  0  0  0  0  0  0  0
   -6.5449    2.6399   27.3297 C   0  0  0  0  0  0  0  0  0  0  0  0
   -9.3098    6.1875   26.5677 C   0  0  0  0  0  0  0  0  0  0  0  0
   -9.4517    5.8072   25.3104 C   0  0  0  0  0  0  0  0  0  0  0  0
   -9.2938    0.4880   26.1266 C   0  0  0  0  0  0  0  0  0  0  0  0
  -10.4483    0.3204   25.9668 C   0  0  0  0  0  0  0  0  0  0  0  0
  -11.0959   -0.8885   25.4788 C   0  0  0  0  0  0  0  0  0  0  0  0
  -12.4582   -0.9953   25.4003 C   0  0  0  0  0  0  0  0  0  0  0  0
  -13.2670    0.0964   25.7562 C   0  0  0  0  0  0  0  0  0  0  0  0
  -12.7436    1.2597   26.1877 C   0  0  0  0  0  0  0  0  0  0  0  0
  -11.3484    1.3914   26.3332 C   0  0  0  0  0  0  0  0  0  0  0  0
  2  3  1  0
  1  6  1  0
  3  9  1  0
  9 10  1  0
  5 11  1  0
 11 12  1  0
 12 13  2  0
 13 14  1  0
 14 15  2  0
 15 16  1  0
 16 17  2  0
 17 12  1  0
  1  2  2  0
  2  4  1  0
  4  5  2  0
  5  7  1  0
  7  8  2  0
  8  1  1  0
M  END
$$$$
