No_6376-complexes_sdf/6BKW-FPZ/2024-09-17-14-21-01/
     RDKit          3D

 15 16  0  0  0  0  0  0  0  0999 V2000
   -7.9040    3.9820   27.1177 C   0  0  0  0  0  0  0  0  0  0  0  0
   -7.8663    4.8694   27.9238 C   0  0  0  0  0  0  0  0  0  0  0  0
   -9.0501    3.8017   26.2617 C   0  0  0  0  0  0  0  0  0  0  0  0
  -10.0189    4.7608   26.3707 C   0  0  0  0  0  0  0  0  0  0  0  0
   -8.6770    5.9780   27.9222 C   0  0  0  0  0  0  0  0  0  0  0  0
   -9.8040    5.8752   27.0958 C   0  0  0  0  0  0  0  0  0  0  0  0
   -9.1518    2.6191   25.4170 C   0  0  0  0  0  0  0  0  0  0  0  0
   -8.6413    1.4242   25.8318 C   0  0  0  0  0  0  0  0  0  0  0  0
   -8.7321    0.3067   25.0180 C   0  0  0  0  0  0  0  0  0  0  0  0
   -9.3519    0.4515   23.7775 C   0  0  0  0  0  0  0  0  0  0  0  0
   -9.7556    2.6898   24.1776 C   0  0  0  0  0  0  0  0  0  0  0  0
   -9.8156    1.6480   23.3533 C   0  0  0  0  0  0  0  0  0  0  0  0
  -10.4523    1.7590   22.0137 C   0  0  0  0  0  0  0  0  0  0  0  0
  -10.4606    3.0037   21.5006 C   0  0  0  0  0  0  0  0  0  0  0  0
  -11.0385    3.2059   20.2321 C   0  0  0  0  0  0  0  0  0  0  0  0
  3  7  1  0
 12 13  1  0
 13 14  2  3
 14 15  1  0
  7  8  2  0
  8  9  1  0
  9 10  2  0
 10 12  1  0
 12 11  2  0
 11  7  1  0
  1  2  2  0
  2  5  1  0
  5  6  2  0
  6  4  1  0
  4  3  2  0
  3  1  1  0
M  END
$$$$
