No_6750-complexes_sdf/6BKW-FPZ/2024-09-17-14-21-01/
     RDKit          3D

 18 20  0  0  0  0  0  0  0  0999 V2000
   -7.9040    3.9820   27.1177 C   0  0  0  0  0  0  0  0  0  0  0  0
   -7.8663    4.8694   27.9238 C   0  0  0  0  0  0  0  0  0  0  0  0
   -9.0953    3.1697   27.0532 C   0  0  0  0  0  0  0  0  0  0  0  0
   -9.1405    2.0104   26.1761 C   0  0  0  0  0  0  0  0  0  0  0  0
   -9.0299    5.5381   28.3948 C   0  0  0  0  0  0  0  0  0  0  0  0
  -10.2709    4.9222   28.1362 C   0  0  0  0  0  0  0  0  0  0  0  0
  -10.2487    3.7550   27.4045 C   0  0  0  0  0  0  0  0  0  0  0  0
   -8.6354    0.8334   26.7474 C   0  0  0  0  0  0  0  0  0  0  0  0
   -8.5635   -0.3535   26.0653 C   0  0  0  0  0  0  0  0  0  0  0  0
   -9.0458   -0.2987   24.7268 C   0  0  0  0  0  0  0  0  0  0  0  0
   -9.4888    1.9211   24.8864 C   0  0  0  0  0  0  0  0  0  0  0  0
   -9.4565    0.8759   24.1409 C   0  0  0  0  0  0  0  0  0  0  0  0
  -11.5196    3.0677   27.2047 C   0  0  0  0  0  0  0  0  0  0  0  0
  -11.9305    2.1825   27.8210 C   0  0  0  0  0  0  0  0  0  0  0  0
  -13.1226    1.4528   27.6943 C   0  0  0  0  0  0  0  0  0  0  0  0
  -12.3216    3.5602   26.1522 C   0  0  0  0  0  0  0  0  0  0  0  0
  -13.5242    2.9933   25.8488 C   0  0  0  0  0  0  0  0  0  0  0  0
  -13.9351    1.9217   26.6366 C   0  0  0  0  0  0  0  0  0  0  0  0
  3  4  1  0
  7 13  1  0
 13 14  2  0
 14 15  1  0
 15 18  2  0
 18 17  1  0
 17 16  2  0
 16 13  1  0
  4  8  2  0
  8  9  1  0
  9 10  2  0
 10 12  1  0
 12 11  2  0
 11  4  1  0
  1  2  2  0
  2  5  1  0
  5  6  2  0
  6  7  1  0
  7  3  2  0
  3  1  1  0
M  END
$$$$
