No_6929-complexes_sdf/6BKW-FPZ/2024-09-17-14-21-01/
     RDKit          3D

 15 16  0  0  0  0  0  0  0  0999 V2000
   -7.7129    4.2099   27.0854 C   0  0  0  0  0  0  0  0  0  0  0  0
   -8.9133    4.4736   27.0998 C   0  0  0  0  0  0  0  0  0  0  0  0
   -9.4643    5.5426   27.7628 C   0  0  0  0  0  0  0  0  0  0  0  0
   -6.8373    4.9942   27.9785 C   0  0  0  0  0  0  0  0  0  0  0  0
   -7.3932    6.0303   28.6784 C   0  0  0  0  0  0  0  0  0  0  0  0
   -8.7122    6.3429   28.5485 C   0  0  0  0  0  0  0  0  0  0  0  0
   -9.7912    3.6118   26.1875 C   0  0  0  0  0  0  0  0  0  0  0  0
  -10.0449    4.0843   24.9272 C   0  0  0  0  0  0  0  0  0  0  0  0
  -10.6873    3.3873   23.9365 C   0  0  0  0  0  0  0  0  0  0  0  0
  -11.0662    2.0908   24.2183 C   0  0  0  0  0  0  0  0  0  0  0  0
  -10.3479    2.4305   26.5801 C   0  0  0  0  0  0  0  0  0  0  0  0
  -10.9153    1.5711   25.5656 C   0  0  0  0  0  0  0  0  0  0  0  0
  -11.7585    1.3178   23.2157 C   0  0  0  0  0  0  0  0  0  0  0  0
  -11.5363    0.2943   22.7742 C   0  0  0  0  0  0  0  0  0  0  0  0
  -12.2311   -0.4418   21.6996 C   0  0  0  0  0  0  0  0  0  0  0  0
  2  7  1  0
 10 13  1  0
 13 14  2  3
 14 15  1  0
  7  8  2  0
  8  9  1  0
  9 10  2  0
 10 12  1  0
 12 11  2  0
 11  7  1  0
  1  2  2  0
  2  3  1  0
  3  6  2  0
  6  5  1  0
  5  4  2  0
  4  1  1  0
M  END
$$$$
