No_604-complexes_sdf/6BKW-FPZ/2024-09-17-14-21-01/
     RDKit          3D

 24 27  0  0  0  0  0  0  0  0999 V2000
   -7.7129    4.2099   27.0854 C   0  0  0  0  0  0  0  0  0  0  0  0
   -7.7814    5.1722   27.8972 C   0  0  0  0  0  0  0  0  0  0  0  0
   -8.8998    3.8713   26.3707 C   0  0  0  0  0  0  0  0  0  0  0  0
   -8.9563    2.6796   25.5490 C   0  0  0  0  0  0  0  0  0  0  0  0
   -8.8131    6.1334   27.9344 C   0  0  0  0  0  0  0  0  0  0  0  0
   -9.9804    5.8121   27.1929 C   0  0  0  0  0  0  0  0  0  0  0  0
   -9.9861    4.6836   26.4532 C   0  0  0  0  0  0  0  0  0  0  0  0
   -9.7724    2.5811   24.5447 N   0  0  0  0  0  0  0  0  0  0  0  0
  -10.3934    3.5937   24.0190 C   0  0  0  0  0  0  0  0  0  0  0  0
  -10.8373    4.5638   25.2393 N   0  0  0  0  0  0  0  0  0  0  0  0
   -9.6823    1.4651   23.6227 C   0  0  0  0  0  0  0  0  0  0  0  0
   -8.9802    0.4263   23.9620 C   0  0  0  0  0  0  0  0  0  0  0  0
  -10.2134    1.5586   22.3331 C   0  0  0  0  0  0  0  0  0  0  0  0
   -8.7879   -0.6899   23.0889 C   0  0  0  0  0  0  0  0  0  0  0  0
  -10.0959    0.4907   21.4159 C   0  0  0  0  0  0  0  0  0  0  0  0
   -9.3594   -0.6159   21.8166 C   0  0  0  0  0  0  0  0  0  0  0  0
   -9.2321   -1.7131   20.8456 C   0  0  0  0  0  0  0  0  0  0  0  0
  -10.0095   -1.7985   19.7875 C   0  0  0  0  0  0  0  0  0  0  0  0
   -9.7538   -2.7499   18.7578 C   0  0  0  0  0  0  0  0  0  0  0  0
   -8.6591   -3.5837   18.8990 C   0  0  0  0  0  0  0  0  0  0  0  0
   -7.9965   -2.5400   20.8131 C   0  0  0  0  0  0  0  0  0  0  0  0
   -7.7422   -3.4054   19.9076 C   0  0  0  0  0  0  0  0  0  0  0  0
  -11.1205    3.9007   23.1415 O   0  0  0  0  0  0  0  0  0  0  0  0
   -6.7146    5.5495   28.7029 O   0  0  0  0  0  0  0  0  0  0  0  0
  3  4  1  0
  4  8  1  0
  8  9  1  0
  7 10  1  0
  9 10  1  0
  8 11  1  0
 16 17  1  0
  9 23  2  0
  2 24  1  0
 11 12  2  0
 12 14  1  0
 14 16  2  0
 16 15  1  0
 15 13  2  0
 13 11  1  0
 17 18  2  0
 18 19  1  0
 19 20  2  0
 20 22  1  0
 22 21  2  0
 21 17  1  0
  1  2  2  0
  2  5  1  0
  5  6  2  0
  6  7  1  0
  7  3  2  0
  3  1  1  0
M  END
$$$$
