No_6510-complexes_sdf/6BKW-FPZ/2024-09-17-14-21-01/
     RDKit          3D

 23 26  0  0  0  0  0  0  0  0999 V2000
   -7.9040    3.9820   27.1177 C   0  0  0  0  0  0  0  0  0  0  0  0
   -7.8663    4.8694   27.9238 C   0  0  0  0  0  0  0  0  0  0  0  0
   -7.4547    2.7080   27.4594 C   0  0  0  0  0  0  0  0  0  0  0  0
   -7.9337    1.5946   26.8372 C   0  0  0  0  0  0  0  0  0  0  0  0
   -7.4948    0.3059   27.1189 C   0  0  0  0  0  0  0  0  0  0  0  0
   -8.1909    6.2127   27.7180 C   0  0  0  0  0  0  0  0  0  0  0  0
   -9.0366    6.5214   26.6670 C   0  0  0  0  0  0  0  0  0  0  0  0
   -8.7377    4.2559   25.9921 C   0  0  0  0  0  0  0  0  0  0  0  0
   -9.2104    5.5017   25.7689 C   0  0  0  0  0  0  0  0  0  0  0  0
   -8.2257   -0.7857   26.6641 C   0  0  0  0  0  0  0  0  0  0  0  0
   -9.1730   -0.6430   26.2841 C   0  0  0  0  0  0  0  0  0  0  0  0
   -9.9111    0.5474   25.9649 C   0  0  0  0  0  0  0  0  0  0  0  0
   -9.2603    1.6884   26.3663 C   0  0  0  0  0  0  0  0  0  0  0  0
   -9.4526    3.0300   25.4314 C   0  0  0  0  0  0  0  0  0  0  0  0
   -6.1515    0.1944   27.8529 C   0  0  0  0  0  0  0  0  0  0  0  0
   -5.1208    1.0502   27.6885 C   0  0  0  0  0  0  0  0  0  0  0  0
   -3.9144    0.8707   28.3821 C   0  0  0  0  0  0  0  0  0  0  0  0
   -3.7617   -0.1780   29.2861 C   0  0  0  0  0  0  0  0  0  0  0  0
   -4.8105   -1.0227   29.5135 C   0  0  0  0  0  0  0  0  0  0  0  0
   -6.0157   -0.8751   28.8155 C   0  0  0  0  0  0  0  0  0  0  0  0
   -2.2900   -0.3360   30.1948 Cl  0  0  0  0  0  0  0  0  0  0  0  0
  -10.2863    3.0575   24.3869 C   0  0  0  0  0  0  0  0  0  0  0  0
  -11.4450    3.8136   24.3820 C   0  0  0  0  0  0  0  0  0  0  0  0
  5 15  1  0
 18 21  1  0
 14 22  1  0
 22 23  1  0
 15 16  2  0
 16 17  1  0
 17 18  2  0
 18 19  1  0
 19 20  2  0
 20 15  1  0
  4  5  1  0
  5 10  2  0
 10 11  1  0
 11 12  2  0
 12 13  1  0
  1  3  1  0
  3  4  2  0
  4 13  1  0
 13 14  2  0
 14  8  1  0
  1  2  2  0
  2  6  1  0
  6  7  2  0
  7  9  1  0
  9  8  2  0
  8  1  1  0
M  END
$$$$
