No_6925-complexes_sdf/6BKW-FPZ/2024-09-17-14-21-01/
     RDKit          3D

 22 23  0  0  0  0  0  0  0  0999 V2000
   -7.7129    4.2099   27.0854 C   0  0  0  0  0  0  0  0  0  0  0  0
   -8.2112    3.0637   26.9225 C   0  0  0  0  0  0  0  0  0  0  0  0
   -7.5138    1.9223   27.4249 C   0  0  0  0  0  0  0  0  0  0  0  0
   -8.5309    5.4147   26.8151 C   0  0  0  0  0  0  0  0  0  0  0  0
   -9.6817    5.2393   26.1100 C   0  0  0  0  0  0  0  0  0  0  0  0
  -10.1032    3.9957   25.8534 C   0  0  0  0  0  0  0  0  0  0  0  0
   -9.4034    2.8430   26.2573 C   0  0  0  0  0  0  0  0  0  0  0  0
   -7.0199    0.9631   26.8971 N   0  0  0  0  0  0  0  0  0  0  0  0
   -6.1936    0.1006   27.5530 C   0  0  0  0  0  0  0  0  0  0  0  0
   -5.3308    0.8360   28.3249 C   0  0  0  0  0  0  0  0  0  0  0  0
   -4.3121    0.0907   29.1345 C   0  0  0  0  0  0  0  0  0  0  0  0
   -4.2704   -1.2162   29.0975 C   0  0  0  0  0  0  0  0  0  0  0  0
   -5.1171   -1.9073   28.2252 C   0  0  0  0  0  0  0  0  0  0  0  0
   -6.0645   -1.2062   27.4751 C   0  0  0  0  0  0  0  0  0  0  0  0
   -7.8218    6.6940   27.1150 C   0  0  0  0  0  0  0  0  0  0  0  0
   -7.4432    0.5074   25.5795 C   0  0  0  0  0  0  0  0  0  0  0  0
   -7.0984    6.6901   28.1007 F   0  0  0  0  0  0  0  0  0  0  0  0
   -8.1158    7.7686   26.5346 F   0  0  0  0  0  0  0  0  0  0  0  0
   -3.2610   -1.9261   29.9432 C   0  0  0  0  0  0  0  0  0  0  0  0
   -3.7693   -2.6507   30.8612 N   0  0  0  0  0  0  0  0  0  0  0  0
   -4.0370   -2.2874   31.9793 C   0  0  0  0  0  0  0  0  0  0  0  0
   -4.6764   -3.1192   32.9402 C   0  0  0  0  0  0  0  0  0  0  0  0
  2  3  1  0
  3  8  1  0
  8  9  1  0
  4 15  1  0
  8 16  1  0
 15 17  1  0
 15 18  1  0
 12 19  1  0
 19 20  1  0
 20 21  1  0
 21 22  2  0
  1  2  2  0
  2  7  1  0
  7  6  2  0
  6  5  1  0
  5  4  2  0
  4  1  1  0
  9 10  2  0
 10 11  1  0
 11 12  2  0
 12 13  1  0
 13 14  2  0
 14  9  1  0
M  END
$$$$
