No_6857-complexes_sdf/6BKW-FPZ/2024-09-17-14-21-01/
     RDKit          3D

 20 22  0  0  0  0  0  0  0  0999 V2000
   -7.2496    3.8871   27.4508 C   0  0  0  0  0  0  0  0  0  0  0  0
   -7.6161    2.7143   27.1523 C   0  0  0  0  0  0  0  0  0  0  0  0
   -8.6212    2.2239   26.4073 C   0  0  0  0  0  0  0  0  0  0  0  0
   -8.2540    4.9237   27.1711 C   0  0  0  0  0  0  0  0  0  0  0  0
   -9.3729    4.5806   26.4433 C   0  0  0  0  0  0  0  0  0  0  0  0
   -9.5830    3.2969   26.1026 C   0  0  0  0  0  0  0  0  0  0  0  0
   -7.9304    6.3207   27.5389 C   0  0  0  0  0  0  0  0  0  0  0  0
   -8.8114    7.3691   27.0321 C   0  0  0  0  0  0  0  0  0  0  0  0
   -6.6015    1.5438   27.5679 C   0  0  0  0  0  0  0  0  0  0  0  0
   -6.8717    0.1756   27.4688 C   0  0  0  0  0  0  0  0  0  0  0  0
   -5.9848   -0.7054   27.8967 C   0  0  0  0  0  0  0  0  0  0  0  0
   -5.3303    1.8315   28.0246 C   0  0  0  0  0  0  0  0  0  0  0  0
   -4.3961    0.9602   28.4411 C   0  0  0  0  0  0  0  0  0  0  0  0
   -4.6946   -0.3454   28.4206 C   0  0  0  0  0  0  0  0  0  0  0  0
   -3.7810   -1.3944   28.9047 C   0  0  0  0  0  0  0  0  0  0  0  0
   -3.8797   -1.7382   30.1531 C   0  0  0  0  0  0  0  0  0  0  0  0
   -2.9852   -2.4133   30.7472 C   0  0  0  0  0  0  0  0  0  0  0  0
   -1.8597   -2.9277   30.0234 C   0  0  0  0  0  0  0  0  0  0  0  0
   -1.6907   -2.5180   28.7294 C   0  0  0  0  0  0  0  0  0  0  0  0
   -2.6203   -1.6063   28.1494 C   0  0  0  0  0  0  0  0  0  0  0  0
  4  7  1  0
  7  8  2  0
  2  9  1  0
 14 15  1  0
 15 16  2  0
 16 17  1  0
 17 18  2  0
 18 19  1  0
 19 20  2  0
 20 15  1  0
  9 10  2  0
 10 11  1  0
 11 14  2  0
 14 13  1  0
 13 12  2  0
 12  9  1  0
  1  2  2  0
  2  3  1  0
  3  6  2  0
  6  5  1  0
  5  4  2  0
  4  1  1  0
M  END
$$$$
