No_6277-complexes_sdf/6BKW-FPZ/2024-09-17-14-21-01/
     RDKit          3D

 35 39  0  0  0  0  0  0  0  0999 V2000
   -7.9040    3.9820   27.1177 C   0  0  0  0  0  0  0  0  0  0  0  0
   -7.8663    4.8694   27.9238 C   0  0  0  0  0  0  0  0  0  0  0  0
   -9.0501    3.8017   26.2617 C   0  0  0  0  0  0  0  0  0  0  0  0
   -9.1826    2.7026   25.3575 C   0  0  0  0  0  0  0  0  0  0  0  0
   -8.6940    6.0131   27.8614 C   0  0  0  0  0  0  0  0  0  0  0  0
   -9.9755    4.8547   26.2361 C   0  0  0  0  0  0  0  0  0  0  0  0
   -9.7463    5.9398   27.0364 C   0  0  0  0  0  0  0  0  0  0  0  0
  -10.1005    1.8694   25.7051 C   0  0  1  0  0  0  0  0  0  0  0  0
  -10.8866    1.7099   26.4597 C   0  0  0  0  0  0  0  0  0  0  0  0
  -11.2373    1.1864   27.2920 C   0  0  0  0  0  0  0  0  0  0  0  0
  -11.8400    0.8454   28.5508 C   0  0  0  0  0  0  0  0  0  0  0  0
  -10.2261    0.9325   24.3766 C   0  0  0  0  0  0  0  0  0  0  0  0
   -9.6531    1.1289   23.3554 C   0  0  0  0  0  0  0  0  0  0  0  0
  -12.8403    1.5593   28.9484 C   0  0  0  0  0  0  0  0  0  0  0  0
  -13.4731    1.4781   30.2162 C   0  0  0  0  0  0  0  0  0  0  0  0
   -9.2981    0.0323   22.5557 C   0  0  0  0  0  0  0  0  0  0  0  0
   -9.8878   -1.1688   22.6964 C   0  0  0  0  0  0  0  0  0  0  0  0
  -10.6369   -1.3306   23.8453 C   0  0  0  0  0  0  0  0  0  0  0  0
  -10.6879   -0.3751   24.7620 C   0  0  0  0  0  0  0  0  0  0  0  0
  -10.8218   -0.5430   27.0053 C   0  0  0  0  0  0  0  0  0  0  0  0
  -10.9281   -0.8912   25.7075 C   0  0  2  0  0  0  0  0  0  0  0  0
  -13.9800    1.5088   27.8402 C   0  0  0  0  0  0  0  0  0  0  0  0
   -6.7133    2.4952   27.2601 Br  0  0  0  0  0  0  0  0  0  0  0  0
  -14.3770    2.5290   27.1955 C   0  0  0  0  0  0  0  0  0  0  0  0
  -14.2408    3.7816   27.7491 C   0  0  0  0  0  0  0  0  0  0  0  0
  -13.3294    4.0428   28.7297 C   0  0  0  0  0  0  0  0  0  0  0  0
  -13.6725    2.7649   30.8933 C   0  0  0  0  0  0  0  0  0  0  0  0
  -14.0243    4.0351   30.1422 C   0  0  0  0  0  0  0  0  0  0  0  0
  -14.5265    0.1765   27.6832 C   0  0  0  0  0  0  0  0  0  0  0  0
  -15.0918   -0.1255   26.4242 C   0  0  0  0  0  0  0  0  0  0  0  0
  -15.4959    0.9697   25.6109 C   0  0  0  0  0  0  0  0  0  0  0  0
  -15.2054    2.3026   26.0279 C   0  0  0  0  0  0  0  0  0  0  0  0
  -14.8481    4.9721   27.0341 C   0  0  0  0  0  0  0  0  0  0  0  0
  -11.5031   -2.6840   25.6881 Cl  0  0  0  0  0  0  0  0  0  0  0  0
  -15.3223    5.0387   25.8569 C   0  0  0  0  0  0  0  0  0  0  0  0
  3  4  1  0
  8  4  1  6
  8  9  1  0
  9 10  2  0
 10 11  1  0
  8 12  1  0
 11 14  2  3
 14 15  1  0
 10 20  1  0
 19 21  1  0
 20 21  1  0
 14 22  1  0
  1 23  1  0
 24 25  1  0
 25 26  2  3
 15 27  2  3
 26 28  1  0
 27 28  1  0
 25 33  1  0
 21 34  1  1
 33 35  2  0
 22 24  2  0
 24 32  1  0
 32 31  2  0
 31 30  1  0
 30 29  2  0
 29 22  1  0
  1  2  2  0
  2  5  1  0
  5  7  2  0
  7  6  1  0
  6  3  2  0
  3  1  1  0
 12 13  2  0
 13 16  1  0
 16 17  2  0
 17 18  1  0
 18 19  2  0
 19 12  1  0
M  END
$$$$
