No_65-complexes_sdf/6BKW-FPZ/2024-09-17-14-21-01/
     RDKit          3D

 12 12  0  0  0  0  0  0  0  0999 V2000
   -7.9040    3.9820   27.1177 C   0  0  0  0  0  0  0  0  0  0  0  0
   -9.0711    4.3164   27.0630 C   0  0  0  0  0  0  0  0  0  0  0  0
   -9.5294    5.4517   27.7215 C   0  0  0  0  0  0  0  0  0  0  0  0
   -7.4336    2.7132   26.5681 C   0  0  0  0  0  0  0  0  0  0  0  0
   -8.2624    1.7597   26.6581 C   0  0  0  0  0  0  0  0  0  0  0  0
   -9.6598    2.0092   26.6342 C   0  0  0  0  0  0  0  0  0  0  0  0
  -10.0433    3.2712   27.0366 C   0  0  0  0  0  0  0  0  0  0  0  0
   -7.7846    0.4007   26.2002 C   0  0  0  0  0  0  0  0  0  0  0  0
   -6.8054   -0.1508   27.0175 C   0  0  0  0  0  0  0  0  0  0  0  0
   -6.4316    0.4799   28.1416 C   0  0  0  0  0  0  0  0  0  0  0  0
   -5.2616   -0.0393   28.9168 C   0  0  0  0  0  0  0  0  0  0  0  0
   -4.5919    0.7239   29.8326 C   0  0  0  0  0  0  0  0  0  0  0  0
  1  2  1  0
  2  3  2  0
  1  4  1  0
  4  5  1  0
  5  6  1  0
  2  7  1  0
  6  7  1  0
  5  8  1  0
  8  9  1  0
  9 10  2  3
 10 11  1  0
 11 12  1  0
M  END
$$$$
