No_6463-complexes_sdf/6BKW-FPZ/2024-09-17-14-21-01/
     RDKit          3D

 14 16  0  0  0  0  0  0  0  0999 V2000
   -7.7129    4.2099   27.0854 C   0  0  0  0  0  0  0  0  0  0  0  0
   -7.7814    5.1722   27.8972 C   0  0  0  0  0  0  0  0  0  0  0  0
   -8.8998    3.8713   26.3707 C   0  0  0  0  0  0  0  0  0  0  0  0
   -8.9563    2.6796   25.5490 C   0  0  0  0  0  0  0  0  0  0  0  0
   -8.8131    6.1334   27.9344 C   0  0  0  0  0  0  0  0  0  0  0  0
   -9.9804    5.8121   27.1929 C   0  0  0  0  0  0  0  0  0  0  0  0
   -9.9861    4.6836   26.4532 C   0  0  0  0  0  0  0  0  0  0  0  0
   -8.3568    1.4858   26.0897 C   0  0  0  0  0  0  0  0  0  0  0  0
   -8.4866    0.4305   25.7605 C   0  0  0  0  0  0  0  0  0  0  0  0
   -7.7956   -0.7658   26.3884 C   0  0  0  0  0  0  0  0  0  0  0  0
   -6.9889   -0.4854   27.5045 C   0  0  0  0  0  0  0  0  0  0  0  0
   -6.7501    0.8251   27.8489 C   0  0  0  0  0  0  0  0  0  0  0  0
   -7.3341    1.8293   27.2395 C   0  0  0  0  0  0  0  0  0  0  0  0
   -7.1951    3.1822   27.6464 N   0  0  0  0  0  0  0  0  0  0  0  0
  3  4  1  0
  4  8  2  0
 13 14  2  0
 14  1  1  0
  8  9  1  0
  9 10  2  0
 10 11  1  0
 11 12  2  0
 12 13  1  0
 13  8  1  0
  1  2  2  0
  2  5  1  0
  5  6  2  0
  6  7  1  0
  7  3  2  0
  3  1  1  0
M  END
$$$$
