No_6685-complexes_sdf/6BKW-FPZ/2024-09-17-14-21-01/
     RDKit          3D

 16 18  0  0  0  0  0  0  0  0999 V2000
   -7.2496    3.8871   27.4508 C   0  0  1  0  0  0  0  0  0  0  0  0
   -8.5096    4.0291   27.2770 C   0  0  0  0  0  0  0  0  0  0  0  0
   -9.2677    5.1714   27.5773 C   0  0  0  0  0  0  0  0  0  0  0  0
   -9.2765    2.8248   26.8371 C   0  0  0  0  0  0  0  0  0  0  0  0
  -10.4623    3.0171   26.3236 C   0  0  0  0  0  0  0  0  0  0  0  0
  -10.8972    2.6250   25.3350 C   0  0  0  0  0  0  0  0  0  0  0  0
  -10.3416    1.8494   24.5924 C   0  0  0  0  0  0  0  0  0  0  0  0
  -10.7945    1.2305   23.3711 C   0  0  0  0  0  0  0  0  0  0  0  0
   -6.5564    4.9429   28.0167 N   0  0  0  0  0  0  0  0  0  0  0  0
  -11.9114    1.7358   22.8236 C   0  0  0  0  0  0  0  0  0  0  0  0
  -12.5962    2.7186   23.4737 C   0  0  0  0  0  0  0  0  0  0  0  0
  -12.1500    3.2461   24.6493 C   0  0  0  0  0  0  0  0  0  0  0  0
  -10.6369    5.2599   27.3208 C   0  0  0  0  0  0  0  0  0  0  0  0
  -11.0942    4.3808   26.6276 C   0  0  0  0  0  0  0  0  0  0  0  0
   -6.5980    2.8067   27.3444 F   0  0  0  0  0  0  0  0  0  0  0  0
  -12.2534    4.4011   25.8056 N   0  0  0  0  0  0  0  0  0  0  0  0
  1  2  1  0
  5  6  1  0
  1  9  1  1
  1 15  1  0
 12 16  1  0
 14 16  1  0
  2  3  2  0
  3 13  1  0
 13 14  2  0
 14  5  1  0
  5  4  2  0
  4  2  1  0
  6  7  2  0
  7  8  1  0
  8 10  2  0
 10 11  1  0
 11 12  2  0
 12  6  1  0
M  END
$$$$
