No_6491-complexes_sdf/6BKW-FPZ/2024-09-17-14-21-01/
     RDKit          3D

 39 43  0  0  0  0  0  0  0  0999 V2000
   -7.7129    4.2099   27.0854 C   0  0  0  0  0  0  0  0  0  0  0  0
   -7.7814    5.1722   27.8972 C   0  0  0  0  0  0  0  0  0  0  0  0
   -8.8998    3.8713   26.3707 C   0  0  0  0  0  0  0  0  0  0  0  0
   -8.9563    2.6796   25.5490 C   0  0  0  0  0  0  0  0  0  0  0  0
   -8.8131    6.1334   27.9344 C   0  0  0  0  0  0  0  0  0  0  0  0
   -9.8102    5.8415   27.0175 C   0  0  0  0  0  0  0  0  0  0  0  0
   -9.8785    4.7485   26.3217 C   0  0  0  0  0  0  0  0  0  0  0  0
   -8.3130    1.5789   26.0678 N   0  0  0  0  0  0  0  0  0  0  0  0
   -8.1736    0.4286   25.3803 C   0  0  0  0  0  0  0  0  0  0  0  0
   -8.6691    0.3224   24.2741 C   0  0  0  0  0  0  0  0  0  0  0  0
   -9.5294    2.5847   24.3504 C   0  0  0  0  0  0  0  0  0  0  0  0
   -9.3716    1.3843   23.6352 C   0  0  0  0  0  0  0  0  0  0  0  0
   -7.4241   -0.6558   26.0977 C   0  0  0  0  0  0  0  0  0  0  0  0
   -6.6370   -1.2011   25.6809 O   0  0  0  0  0  0  0  0  0  0  0  0
   -7.8511   -0.7858   27.3963 O   0  0  0  0  0  0  0  0  0  0  0  0
   -9.9611    1.3335   22.3209 C   0  0  0  0  0  0  0  0  0  0  0  0
  -11.3506    1.2750   22.2388 C   0  0  0  0  0  0  0  0  0  0  0  0
  -11.8834    1.3128   20.9657 C   0  0  0  0  0  0  0  0  0  0  0  0
  -11.0604    1.0752   19.8367 C   0  0  0  0  0  0  0  0  0  0  0  0
   -9.7282    0.8657   20.1117 C   0  0  0  0  0  0  0  0  0  0  0  0
   -9.0903    1.0585   21.2691 C   0  0  0  0  0  0  0  0  0  0  0  0
   -6.7333    5.5178   28.7066 F   0  0  0  0  0  0  0  0  0  0  0  0
   -7.0772   -1.4562   28.2642 C   0  0  1  0  0  0  0  0  0  0  0  0
   -5.9155   -0.9305   28.6717 C   0  0  0  0  0  0  0  0  0  0  0  0
   -5.1549   -1.5347   29.7153 C   0  0  0  0  0  0  0  0  0  0  0  0
   -3.9313   -0.9425   30.1930 C   0  0  0  0  0  0  0  0  0  0  0  0
   -3.4758    0.2098   29.5414 C   0  0  0  0  0  0  0  0  0  0  0  0
   -4.1912    0.8200   28.5153 C   0  0  0  0  0  0  0  0  0  0  0  0
   -5.3749    0.2929   28.1074 C   0  0  0  0  0  0  0  0  0  0  0  0
   -3.1501   -1.5139   31.2743 C   0  0  0  0  0  0  0  0  0  0  0  0
   -3.4692   -1.7600   32.2510 N   0  0  0  0  0  0  0  0  0  0  0  0
   -1.7888   -1.7590   30.9368 N   0  0  0  0  0  0  0  0  0  0  0  0
   -2.6742   -2.2994   33.2954 C   0  0  0  0  0  0  0  0  0  0  0  0
   -0.9028   -2.2284   31.7882 C   0  0  0  0  0  0  0  0  0  0  0  0
   -1.3570   -2.5441   33.0700 C   0  0  0  0  0  0  0  0  0  0  0  0
   -0.4480   -3.0961   34.1095 C   0  0  0  0  0  0  0  0  0  0  0  0
   -0.1354   -2.5021   34.8797 O   0  0  0  0  0  0  0  0  0  0  0  0
    0.1242   -4.1666   33.7124 O   0  0  0  0  0  0  0  0  0  0  0  0
   -8.0159   -1.6828   29.5571 C   0  0  0  0  0  0  0  0  0  0  0  0
  3  4  1  0
  9 13  1  0
 13 14  2  0
 13 15  1  0
 12 16  1  0
  2 22  1  0
 15 23  1  0
 26 30  1  0
 35 36  1  0
 36 37  2  0
 36 38  1  0
 23 39  1  1
 23 24  1  0
 24 25  2  0
 25 26  1  0
 26 27  2  0
 27 28  1  0
 28 29  2  0
 29 24  1  0
  1  2  2  0
  2  5  1  0
  5  6  2  0
  6  7  1  0
  7  3  2  0
  3  1  1  0
  4  8  2  0
  8  9  1  0
  9 10  2  0
 10 12  1  0
 12 11  2  0
 11  4  1  0
 16 17  2  0
 17 18  1  0
 18 19  2  0
 19 20  1  0
 20 21  2  0
 21 16  1  0
 30 31  2  0
 31 33  1  0
 33 35  2  0
 35 34  1  0
 34 32  2  0
 32 30  1  0
M  END
$$$$
