No_6616-complexes_sdf/6BKW-FPZ/2024-09-17-14-21-01/
     RDKit          3D

 40 43  0  0  0  0  0  0  0  0999 V2000
   -7.9040    3.9820   27.1177 C   0  0  0  0  0  0  0  0  0  0  0  0
   -8.2057    2.8231   26.8733 C   0  0  0  0  0  0  0  0  0  0  0  0
   -8.7695    5.0740   26.7916 C   0  0  0  0  0  0  0  0  0  0  0  0
   -9.9618    4.7598   26.1630 C   0  0  0  0  0  0  0  0  0  0  0  0
   -9.4200    2.4524   26.2850 C   0  0  0  0  0  0  0  0  0  0  0  0
  -10.2590    3.4815   25.9250 C   0  0  0  0  0  0  0  0  0  0  0  0
   -8.3840    6.4693   27.0829 C   0  0  0  0  0  0  0  0  0  0  0  0
   -8.7958    7.4358   26.4217 N   0  0  0  0  0  0  0  0  0  0  0  0
   -7.1970    6.5371   27.7350 O   0  0  0  0  0  0  0  0  0  0  0  0
   -7.1303    1.4795   27.3593 Cl  0  0  0  0  0  0  0  0  0  0  0  0
  -11.5336    3.1742   25.2063 C   0  0  0  0  0  0  0  0  0  0  0  0
  -12.5974    2.6993   25.8982 C   0  0  0  0  0  0  0  0  0  0  0  0
  -12.4526    2.5749   27.3312 C   0  0  0  0  0  0  0  0  0  0  0  0
  -13.5932    2.0631   28.1149 C   0  0  0  0  0  0  0  0  0  0  0  0
  -14.6251    1.9027   27.6141 C   0  0  0  0  0  0  0  0  0  0  0  0
  -14.8801    2.1194   26.2356 C   0  0  0  0  0  0  0  0  0  0  0  0
  -13.8818    2.5918   25.3984 C   0  0  0  0  0  0  0  0  0  0  0  0
  -11.5807    3.3508   23.8076 C   0  0  0  0  0  0  0  0  0  0  0  0
  -10.6198    3.4899   23.0639 N   0  0  0  0  0  0  0  0  0  0  0  0
  -10.5910    3.7259   21.7309 C   0  0  1  0  0  0  0  0  0  0  0  0
  -12.6726    3.7528   23.2973 O   0  0  0  0  0  0  0  0  0  0  0  0
  -10.6506    4.8868   21.2733 C   0  0  0  0  0  0  0  0  0  0  0  0
  -10.2983    2.6077   20.9095 C   0  0  0  0  0  0  0  0  0  0  0  0
  -10.1692    1.3057   21.4197 C   0  0  2  0  0  0  0  0  0  0  0  0
  -11.1816    0.5496   21.7307 C   0  0  0  0  0  0  0  0  0  0  0  0
  -12.1846    0.4394   21.0185 C   0  0  0  0  0  0  0  0  0  0  0  0
  -13.3155   -0.4736   21.2967 C   0  0  0  0  0  0  0  0  0  0  0  0
  -13.2332   -1.1605   22.5092 C   0  0  0  0  0  0  0  0  0  0  0  0
  -12.1842   -1.0216   23.3801 C   0  0  0  0  0  0  0  0  0  0  0  0
  -11.1284   -0.2172   23.0458 C   0  0  0  0  0  0  0  0  0  0  0  0
  -12.2183   -1.9277   24.8412 Cl  0  0  0  0  0  0  0  0  0  0  0  0
   -8.9934    1.2996   22.4127 C   0  0  0  0  0  0  0  0  0  0  0  0
  -14.3777   -0.5332   20.5380 O   0  0  0  0  0  0  0  0  0  0  0  0
  -14.6101    0.0450   19.5392 C   0  0  0  0  0  0  0  0  0  0  0  0
  -14.3124   -0.5070   18.5048 C   0  0  0  0  0  0  0  0  0  0  0  0
  -14.2784    0.2603   17.2766 C   0  0  0  0  0  0  0  0  0  0  0  0
  -14.7141    1.5688   17.2668 C   0  0  0  0  0  0  0  0  0  0  0  0
  -15.0518    2.1628   18.4484 C   0  0  0  0  0  0  0  0  0  0  0  0
  -14.9333    1.4570   19.6122 C   0  0  0  0  0  0  0  0  0  0  0  0
  -15.4334    3.6001   18.4424 C   0  0  0  0  0  0  0  0  0  0  0  0
  3  7  1  0
  7  8  1  0
  7  9  2  0
  2 10  1  0
  6 11  1  0
 11 18  1  0
 18 19  1  0
 19 20  1  0
 18 21  2  0
 20 22  1  1
 20 23  1  0
 23 24  1  0
 24 25  1  0
 29 31  1  0
 24 32  1  1
 27 33  1  0
 33 34  1  0
 38 40  1  0
 11 12  1  0
 12 13  2  0
 13 14  1  0
 14 15  2  0
 15 16  1  0
 16 17  2  0
 17 12  1  0
 25 26  2  0
 26 27  1  0
 27 28  2  0
 28 29  1  0
 29 30  2  0
 30 25  1  0
 34 35  2  0
 35 36  1  0
 36 37  2  0
 37 38  1  0
 38 39  2  0
 39 34  1  0
  1  2  2  0
  2  5  1  0
  5  6  2  0
  6  4  1  0
  4  3  2  0
  3  1  1  0
M  END
$$$$
