No_6691-complexes_sdf/6BKW-FPZ/2024-09-17-14-21-01/
     RDKit          3D

 29 32  0  0  0  0  0  0  0  0999 V2000
   -7.2496    3.8871   27.4508 C   0  0  0  0  0  0  0  0  0  0  0  0
   -7.9379    4.9063   27.8518 C   0  0  0  0  0  0  0  0  0  0  0  0
   -9.3460    4.8223   27.8695 C   0  0  0  0  0  0  0  0  0  0  0  0
   -7.8628    2.6163   27.1065 C   0  0  0  0  0  0  0  0  0  0  0  0
   -9.2787    2.5744   27.1970 C   0  0  0  0  0  0  0  0  0  0  0  0
  -10.0108    3.6770   27.6340 C   0  0  0  0  0  0  0  0  0  0  0  0
  -11.4855    3.5731   27.7420 C   0  0  0  0  0  0  0  0  0  0  0  0
  -11.9299    2.8562   28.8221 C   0  0  0  0  0  0  0  0  0  0  0  0
  -12.9271    2.5327   28.8987 C   0  0  0  0  0  0  0  0  0  0  0  0
  -14.0204    2.9581   28.0886 C   0  0  0  0  0  0  0  0  0  0  0  0
  -13.6397    3.7678   27.0004 C   0  0  0  0  0  0  0  0  0  0  0  0
  -12.2904    4.0956   26.7862 C   0  0  0  0  0  0  0  0  0  0  0  0
   -7.0956    1.4638   26.7900 C   0  0  0  0  0  0  0  0  0  0  0  0
   -7.6400    0.5101   25.9405 C   0  0  0  0  0  0  0  0  0  0  0  0
   -6.9142   -0.6316   25.6241 C   0  0  0  0  0  0  0  0  0  0  0  0
   -5.6515   -0.8508   26.2179 C   0  0  0  0  0  0  0  0  0  0  0  0
   -5.1754    0.0793   27.1804 C   0  0  0  0  0  0  0  0  0  0  0  0
   -5.8762    1.2172   27.4859 C   0  0  0  0  0  0  0  0  0  0  0  0
   -7.1382    6.4090   28.2508 Cl  0  0  0  0  0  0  0  0  0  0  0  0
   -3.8574   -0.1594   27.8453 C   0  0  0  0  0  0  0  0  0  0  0  0
   -3.8247    0.1759   29.1901 C   0  0  0  0  0  0  0  0  0  0  0  0
   -3.7711   -0.8634   30.2376 C   0  0  0  0  0  0  0  0  0  0  0  0
   -3.9442   -0.4729   31.5490 C   0  0  0  0  0  0  0  0  0  0  0  0
   -3.9784   -1.4258   32.5642 C   0  0  0  0  0  0  0  0  0  0  0  0
   -3.8369   -2.7418   32.2759 C   0  0  0  0  0  0  0  0  0  0  0  0
   -3.6793   -2.1916   29.9993 C   0  0  0  0  0  0  0  0  0  0  0  0
   -3.6951   -3.1220   30.9984 C   0  0  0  0  0  0  0  0  0  0  0  0
   -2.7469   -0.6628   27.2327 C   0  0  0  0  0  0  0  0  0  0  0  0
   -2.2088    0.0132   26.2366 C   0  0  0  0  0  0  0  0  0  0  0  0
  6  7  1  0
  4 13  1  0
  2 19  1  0
 17 20  1  0
 20 21  1  0
 21 22  1  0
 20 28  1  0
 28 29  1  0
 13 14  2  0
 14 15  1  0
 15 16  2  0
 16 17  1  0
 17 18  2  0
 18 13  1  0
  1  2  2  0
  2  3  1  0
  3  6  2  0
  6  5  1  0
  5  4  2  0
  4  1  1  0
 22 23  2  0
 23 24  1  0
 24 25  2  0
 25 27  1  0
 27 26  2  0
 26 22  1  0
  7  8  2  0
  8  9  1  0
  9 10  2  0
 10 11  1  0
 11 12  2  0
 12  7  1  0
M  END
$$$$
