No_6402-complexes_sdf/6BKW-FPZ/2024-09-17-14-21-01/
     RDKit          3D

 14 15  0  0  0  0  0  0  0  0999 V2000
   -7.2496    3.8871   27.4508 C   0  0  0  0  0  0  0  0  0  0  0  0
   -7.6161    2.7143   27.1523 C   0  0  0  0  0  0  0  0  0  0  0  0
   -8.6212    2.2239   26.4074 C   0  0  0  0  0  0  0  0  0  0  0  0
   -8.2540    4.9237   27.1711 C   0  0  0  0  0  0  0  0  0  0  0  0
   -9.3729    4.5806   26.4433 C   0  0  0  0  0  0  0  0  0  0  0  0
   -9.5830    3.2969   26.1026 C   0  0  0  0  0  0  0  0  0  0  0  0
   -7.9412    6.1793   27.5109 F   0  0  0  0  0  0  0  0  0  0  0  0
   -8.7054    0.8169   26.1150 C   0  0  0  0  0  0  0  0  0  0  0  0
   -9.4481    0.3135   25.4329 C   0  0  0  0  0  0  0  0  0  0  0  0
  -10.4863    1.1345   24.7273 C   0  0  0  0  0  0  0  0  0  0  0  0
  -11.4473    0.6250   23.7948 C   0  0  0  0  0  0  0  0  0  0  0  0
  -10.6104    2.6882   25.1362 C   0  0  0  0  0  0  0  0  0  0  0  0
  -12.3444    1.2779   23.3574 N   0  0  0  0  0  0  0  0  0  0  0  0
  -13.2729    0.9350   22.4794 C   0  0  0  0  0  0  0  0  0  0  0  0
  4  7  1  0
 11 13  1  0
 13 14  1  0
 11 10  1  0
  6 12  2  0
 12 10  1  0
 10  9  2  0
  9  8  1  0
  8  3  2  0
  1  2  2  0
  2  3  1  0
  3  6  1  0
  6  5  1  0
  5  4  2  0
  4  1  1  0
M  END
$$$$
