No_6982-complexes_sdf/6BKW-FPZ/2024-09-17-14-21-01/
     RDKit          3D

 40 44  0  0  0  0  0  0  0  0999 V2000
   -7.7129    4.2099   27.0854 C   0  0  0  0  0  0  0  0  0  0  0  0
   -8.9133    4.4736   27.0998 C   0  0  0  0  0  0  0  0  0  0  0  0
   -9.7937    3.7367   26.2091 C   0  0  0  0  0  0  0  0  0  0  0  0
   -7.2496    2.8647   26.8496 C   0  0  0  0  0  0  0  0  0  0  0  0
   -8.1891    1.9790   26.3454 C   0  0  0  0  0  0  0  0  0  0  0  0
   -9.4252    2.4603   26.0121 C   0  0  0  0  0  0  0  0  0  0  0  0
   -9.4866    5.7779   27.2802 N   0  0  0  0  0  0  0  0  0  0  0  0
   -8.7274    6.9294   27.3175 C   0  0  0  0  0  0  0  0  0  0  0  0
   -7.7295    0.6014   26.1245 C   0  0  0  0  0  0  0  0  0  0  0  0
   -7.5800    0.3778   24.9330 F   0  0  0  0  0  0  0  0  0  0  0  0
   -8.8052   -0.1986   26.5863 F   0  0  0  0  0  0  0  0  0  0  0  0
   -6.6735    0.2658   26.8489 F   0  0  0  0  0  0  0  0  0  0  0  0
   -8.0998    7.3614   26.0916 C   0  0  0  0  0  0  0  0  0  0  0  0
  -10.7653    5.7950   27.9420 C   0  0  0  0  0  0  0  0  0  0  0  0
   -6.5293    5.0682   28.1787 Cl  0  0  0  0  0  0  0  0  0  0  0  0
   -8.7988    7.5444   25.2185 F   0  0  0  0  0  0  0  0  0  0  0  0
   -7.5942    8.6777   26.3939 F   0  0  0  0  0  0  0  0  0  0  0  0
  -11.1442    4.0931   25.8361 C   0  0  0  0  0  0  0  0  0  0  0  0
  -11.7555    4.8170   26.9865 C   0  0  0  0  0  0  0  0  0  0  0  0
  -13.1216    4.7656   27.3291 C   0  0  0  0  0  0  0  0  0  0  0  0
  -13.6032    4.7378   28.6963 C   0  0  0  0  0  0  0  0  0  0  0  0
  -14.0518    5.1097   26.3227 C   0  0  0  0  0  0  0  0  0  0  0  0
  -14.9406    4.7628   28.9748 C   0  0  0  0  0  0  0  0  0  0  0  0
  -15.4526    5.1827   26.6180 C   0  0  0  0  0  0  0  0  0  0  0  0
  -15.8703    5.0128   27.9317 C   0  0  0  0  0  0  0  0  0  0  0  0
  -15.4255    4.6041   30.3666 C   0  0  0  0  0  0  0  0  0  0  0  0
  -14.7053    4.0563   31.1291 O   0  0  0  0  0  0  0  0  0  0  0  0
  -16.5242    5.1248   30.7033 O   0  0  0  0  0  0  0  0  0  0  0  0
  -16.3452    5.4102   25.4957 C   0  0  0  0  0  0  0  0  0  0  0  0
  -15.8874    5.4642   24.3164 C   0  0  0  0  0  0  0  0  0  0  0  0
  -16.6963    5.6778   23.1904 C   0  0  0  0  0  0  0  0  0  0  0  0
  -16.1275    5.4418   21.9103 C   0  0  0  0  0  0  0  0  0  0  0  0
  -14.7476    5.1947   21.7385 C   0  0  0  0  0  0  0  0  0  0  0  0
  -13.9522    5.0783   22.8107 C   0  0  0  0  0  0  0  0  0  0  0  0
  -14.4482    5.1357   24.0490 C   0  0  0  0  0  0  0  0  0  0  0  0
  -13.6473    4.9775   25.1752 N   0  0  0  0  0  0  0  0  0  0  0  0
  -17.6204    5.7240   25.7894 N   0  0  0  0  0  0  0  0  0  0  0  0
  -18.5866    4.7328   25.7160 C   0  0  0  0  0  0  0  0  0  0  0  0
  -19.9059    5.1268   25.9385 C   0  0  0  0  0  0  0  0  0  0  0  0
  -18.0042    7.0500   26.0543 C   0  0  0  0  0  0  0  0  0  0  0  0
  2  7  1  0
  7  8  1  0
  5  9  1  0
  9 10  1  0
  9 11  1  0
  9 12  1  0
  8 13  1  0
  7 14  1  0
  1 15  1  0
 13 16  1  0
 13 17  1  0
  3 18  1  0
 14 19  1  0
 19 20  1  0
 23 26  1  0
 26 27  1  0
 26 28  2  0
 29 37  1  0
 37 38  1  0
 38 39  2  0
 37 40  1  0
 18 19  1  0
  1  2  2  0
  2  3  1  0
  3  6  2  0
  6  5  1  0
  5  4  2  0
  4  1  1  0
 24 29  2  0
 29 30  1  0
 35 36  1  0
 36 22  2  0
 30 31  2  0
 31 32  1  0
 32 33  2  0
 33 34  1  0
 34 35  2  0
 35 30  1  0
 20 21  2  0
 21 23  1  0
 23 25  2  0
 25 24  1  0
 24 22  1  0
 22 20  1  0
M  END
$$$$
