No_6545-complexes_sdf/6BKW-FPZ/2024-09-17-14-21-01/
     RDKit          3D

 13 14  0  0  0  0  0  0  0  0999 V2000
   -7.7129    4.2099   27.0854 C   0  0  0  0  0  0  0  0  0  0  0  0
   -8.9133    4.4736   27.0998 C   0  0  0  0  0  0  0  0  0  0  0  0
   -9.4643    5.5426   27.7628 C   0  0  0  0  0  0  0  0  0  0  0  0
   -6.8373    4.9942   27.9785 C   0  0  0  0  0  0  0  0  0  0  0  0
   -7.3932    6.0303   28.6784 C   0  0  0  0  0  0  0  0  0  0  0  0
   -8.7122    6.3429   28.5485 C   0  0  0  0  0  0  0  0  0  0  0  0
   -9.6270    3.4988   26.1115 C   0  0  0  0  0  0  0  0  0  0  0  0
  -10.2144    4.0745   25.0236 C   0  0  0  0  0  0  0  0  0  0  0  0
  -10.8277    3.3690   23.9833 C   0  0  0  0  0  0  0  0  0  0  0  0
  -10.7654    1.9954   24.0331 C   0  0  0  0  0  0  0  0  0  0  0  0
   -9.5565    2.1657   26.0792 C   0  0  0  0  0  0  0  0  0  0  0  0
  -10.0999    1.3979   25.1359 C   0  0  0  0  0  0  0  0  0  0  0  0
  -11.5012    4.3522   22.7228 Cl  0  0  0  0  0  0  0  0  0  0  0  0
  2  7  1  0
  9 13  1  0
  7  8  2  0
  8  9  1  0
  9 10  2  0
 10 12  1  0
 12 11  2  0
 11  7  1  0
  1  2  2  0
  2  3  1  0
  3  6  2  0
  6  5  1  0
  5  4  2  0
  4  1  1  0
M  END
$$$$
