No_6761-complexes_sdf/6BKW-FPZ/2024-09-17-14-21-01/
     RDKit          3D

 21 23  0  0  0  0  0  0  0  0999 V2000
   -7.9040    3.9820   27.1177 C   0  0  0  0  0  0  0  0  0  0  0  0
   -7.8663    4.8694   27.9238 C   0  0  0  0  0  0  0  0  0  0  0  0
   -9.0953    3.1697   27.0532 C   0  0  0  0  0  0  0  0  0  0  0  0
  -10.1313    3.4052   27.8871 C   0  0  0  0  0  0  0  0  0  0  0  0
   -8.9489    5.3814   28.6671 C   0  0  0  0  0  0  0  0  0  0  0  0
  -10.1039    4.5714   28.7102 C   0  0  0  0  0  0  0  0  0  0  0  0
   -9.0505    1.9437   26.1963 C   0  0  0  0  0  0  0  0  0  0  0  0
   -9.5005    2.1052   24.8742 C   0  0  0  0  0  0  0  0  0  0  0  0
   -9.4919    1.0870   23.9344 C   0  0  0  0  0  0  0  0  0  0  0  0
   -8.5089    0.7561   26.5738 C   0  0  0  0  0  0  0  0  0  0  0  0
   -7.9931    0.5178   27.9243 C   0  0  0  0  0  0  0  0  0  0  0  0
   -8.9302   -0.1502   24.3653 C   0  0  0  0  0  0  0  0  0  0  0  0
   -8.4568   -0.3389   25.6044 C   0  0  0  0  0  0  0  0  0  0  0  0
  -11.1826    2.6663   27.9259 F   0  0  0  0  0  0  0  0  0  0  0  0
   -9.9617    1.3594   22.5998 C   0  0  0  0  0  0  0  0  0  0  0  0
  -10.0806    2.6256   22.1899 C   0  0  0  0  0  0  0  0  0  0  0  0
  -10.1950    3.6237   23.1658 C   0  0  0  0  0  0  0  0  0  0  0  0
   -9.8807    3.4516   24.4448 C   0  0  0  0  0  0  0  0  0  0  0  0
  -10.7304    4.9104   22.5344 C   0  0  0  0  0  0  0  0  0  0  0  0
  -10.6515    5.7806   23.5033 F   0  0  0  0  0  0  0  0  0  0  0  0
  -11.0122    5.1668   21.4877 F   0  0  0  0  0  0  0  0  0  0  0  0
  3  7  1  0
 10 11  1  0
  4 14  1  0
 17 19  1  0
 19 20  1  0
 19 21  1  0
  9 15  1  0
 15 16  2  0
 16 17  1  0
 17 18  2  0
 18  8  1  0
  7  8  2  0
  8  9  1  0
  9 12  2  0
 12 13  1  0
 13 10  2  0
 10  7  1  0
  1  2  2  0
  2  5  1  0
  5  6  2  0
  6  4  1  0
  4  3  2  0
  3  1  1  0
M  END
$$$$
