No_603-complexes_sdf/6BKW-FPZ/2024-09-17-14-21-01/
     RDKit          3D

 15 15  0  0  0  0  0  0  0  0999 V2000
   -7.7129    4.2099   27.0854 C   0  0  0  0  0  0  0  0  0  0  0  0
   -8.2112    3.0637   26.9225 C   0  0  0  0  0  0  0  0  0  0  0  0
   -9.4446    2.8304   26.1868 C   0  0  0  0  0  0  0  0  0  0  0  0
   -8.4697    5.3956   26.7238 C   0  0  0  0  0  0  0  0  0  0  0  0
   -9.6172    5.2111   25.9513 C   0  0  0  0  0  0  0  0  0  0  0  0
  -10.0424    3.9782   25.6873 C   0  0  0  0  0  0  0  0  0  0  0  0
   -7.8256    6.9333   27.0525 Cl  0  0  0  0  0  0  0  0  0  0  0  0
   -7.5524    1.5463   27.4643 Cl  0  0  0  0  0  0  0  0  0  0  0  0
  -11.2570    3.6263   24.9321 C   0  0  2  0  0  0  0  0  0  0  0  0
  -11.4439    4.3260   23.6934 Cl  0  0  0  0  0  0  0  0  0  0  0  0
  -12.2444    2.7844   25.4461 C   0  0  0  0  0  0  0  0  0  0  0  0
  -13.1066    2.3689   24.7230 C   0  0  0  0  0  0  0  0  0  0  0  0
  -14.1742    1.4506   25.1941 C   0  0  0  0  0  0  0  0  0  0  0  0
  -14.0565    1.1038   26.5575 C   0  0  0  0  0  0  0  0  0  0  0  0
  -13.0458    1.5531   27.3790 C   0  0  0  0  0  0  0  0  0  0  0  0
  4  7  1  0
  2  8  1  0
  6  9  1  0
  9 10  1  1
  9 11  1  0
 11 12  2  3
 12 13  1  0
 13 14  2  3
 14 15  1  0
  1  2  2  0
  2  3  1  0
  3  6  2  0
  6  5  1  0
  5  4  2  0
  4  1  1  0
M  END
$$$$
