No_6454-complexes_sdf/6BKW-FPZ/2024-09-17-14-21-01/
     RDKit          3D

 20 22  0  0  0  0  0  0  0  0999 V2000
   -7.2496    3.8871   27.4508 C   0  0  0  0  0  0  0  0  0  0  0  0
   -7.6161    2.7143   27.1523 C   0  0  0  0  0  0  0  0  0  0  0  0
   -8.8827    2.2318   27.1220 C   0  0  0  0  0  0  0  0  0  0  0  0
   -8.2837    4.9116   27.6108 C   0  0  0  0  0  0  0  0  0  0  0  0
   -9.6088    4.5175   27.5560 C   0  0  0  0  0  0  0  0  0  0  0  0
   -9.9243    3.2149   27.3938 C   0  0  0  0  0  0  0  0  0  0  0  0
   -7.8089    6.5215   27.9328 Cl  0  0  0  0  0  0  0  0  0  0  0  0
   -9.0679    0.7700   26.9211 C   0  0  0  0  0  0  0  0  0  0  0  0
  -10.0165    0.2096   27.3626 N   0  0  0  0  0  0  0  0  0  0  0  0
  -10.0862   -1.1238   27.6316 C   0  0  0  0  0  0  0  0  0  0  0  0
   -9.0153   -1.8077   27.2367 C   0  0  0  0  0  0  0  0  0  0  0  0
   -7.9528   -0.0364   26.5902 C   0  0  0  0  0  0  0  0  0  0  0  0
   -7.9153   -1.2969   26.7732 C   0  0  0  0  0  0  0  0  0  0  0  0
  -11.2106   -1.6223   28.1361 F   0  0  0  0  0  0  0  0  0  0  0  0
   -6.7319   -2.0940   26.3906 C   0  0  0  0  0  0  0  0  0  0  0  0
   -5.8160   -1.5021   25.6507 C   0  0  0  0  0  0  0  0  0  0  0  0
   -4.5285   -1.9793   25.4369 C   0  0  0  0  0  0  0  0  0  0  0  0
   -4.1957   -2.9684   26.1290 C   0  0  0  0  0  0  0  0  0  0  0  0
   -5.0542   -3.6525   26.9535 C   0  0  0  0  0  0  0  0  0  0  0  0
   -6.2999   -3.1232   27.2263 C   0  0  0  0  0  0  0  0  0  0  0  0
  4  7  1  0
  3  8  1  0
 10 14  1  0
 13 15  1  0
 15 16  2  0
 16 17  1  0
 17 18  2  0
 18 19  1  0
 19 20  2  0
 20 15  1  0
  1  2  2  0
  2  3  1  0
  3  6  2  0
  6  5  1  0
  5  4  2  0
  4  1  1  0
  8  9  2  0
  9 10  1  0
 10 11  2  0
 11 13  1  0
 13 12  2  0
 12  8  1  0
M  END
$$$$
