No_649-complexes_sdf/6BKW-FPZ/2024-09-17-14-21-01/
     RDKit          3D

 19 21  0  0  0  0  0  0  0  0999 V2000
   -7.9040    3.9820   27.1177 C   0  0  0  0  0  0  0  0  0  0  0  0
   -7.8663    4.8694   27.9238 C   0  0  0  0  0  0  0  0  0  0  0  0
   -9.0953    3.1697   27.0532 C   0  0  0  0  0  0  0  0  0  0  0  0
  -10.1313    3.4052   27.8871 C   0  0  0  0  0  0  0  0  0  0  0  0
  -10.1178    4.5885   28.6885 C   0  0  0  0  0  0  0  0  0  0  0  0
   -8.9412    5.2994   28.7548 C   0  0  0  0  0  0  0  0  0  0  0  0
   -9.0691    1.9565   26.1695 C   0  0  0  0  0  0  0  0  0  0  0  0
   -9.4570    2.1430   24.8640 C   0  0  0  0  0  0  0  0  0  0  0  0
   -9.9140    3.4826   24.4642 C   0  0  0  0  0  0  0  0  0  0  0  0
  -10.3654    3.7856   23.1920 C   0  0  0  0  0  0  0  0  0  0  0  0
  -10.2583    2.8266   22.1957 C   0  0  0  0  0  0  0  0  0  0  0  0
   -9.7700    1.5153   22.5434 C   0  0  0  0  0  0  0  0  0  0  0  0
   -9.3760    1.2443   23.8346 C   0  0  0  0  0  0  0  0  0  0  0  0
   -8.6139    0.7221   26.6391 C   0  0  0  0  0  0  0  0  0  0  0  0
   -8.2653    0.4507   27.7888 C   0  0  0  0  0  0  0  0  0  0  0  0
   -7.7898   -0.8331   28.1853 C   0  0  0  0  0  0  0  0  0  0  0  0
   -7.7159   -1.8089   27.2328 C   0  0  0  0  0  0  0  0  0  0  0  0
   -8.5147   -0.3037   25.7592 N   0  0  0  0  0  0  0  0  0  0  0  0
   -8.0300   -1.5351   26.0121 C   0  0  0  0  0  0  0  0  0  0  0  0
  3  7  1  0
  7 14  1  0
  7  8  1  0
  1  2  2  0
  2  6  1  0
  6  5  2  0
  5  4  1  0
  4  3  2  0
  3  1  1  0
 14 15  2  0
 15 16  1  0
 16 17  2  0
 17 19  1  0
 19 18  2  0
 18 14  1  0
  8  9  2  0
  9 10  1  0
 10 11  2  0
 11 12  1  0
 12 13  2  0
 13  8  1  0
M  END
$$$$
