No_6560-complexes_sdf/6BKW-FPZ/2024-09-17-14-21-01/
     RDKit          3D

 31 34  0  0  0  0  0  0  0  0999 V2000
   -7.9040    3.9820   27.1177 C   0  0  0  0  0  0  0  0  0  0  0  0
   -8.2057    2.8231   26.8733 C   0  0  0  0  0  0  0  0  0  0  0  0
   -8.7695    5.0740   26.7916 C   0  0  0  0  0  0  0  0  0  0  0  0
   -9.9618    4.7598   26.1630 C   0  0  0  0  0  0  0  0  0  0  0  0
   -9.4200    2.4524   26.2849 C   0  0  0  0  0  0  0  0  0  0  0  0
  -10.2590    3.4815   25.9250 C   0  0  0  0  0  0  0  0  0  0  0  0
   -8.6094    6.4941   27.0911 C   0  0  0  0  0  0  0  0  0  0  0  0
   -8.0678    6.9159   28.1425 N   0  0  0  0  0  0  0  0  0  0  0  0
   -9.1192    7.3582   26.3108 O   0  0  0  0  0  0  0  0  0  0  0  0
   -7.2578    1.6815   27.2755 C   0  0  0  0  0  0  0  0  0  0  0  0
   -6.0152    2.0029   27.8507 C   0  0  0  0  0  0  0  0  0  0  0  0
   -5.1037    0.9359   28.1936 C   0  0  0  0  0  0  0  0  0  0  0  0
   -5.4724   -0.3614   28.0513 C   0  0  0  0  0  0  0  0  0  0  0  0
   -7.3646    0.2903   27.2025 C   0  0  0  0  0  0  0  0  0  0  0  0
   -6.6607   -0.6400   27.5837 C   0  0  0  0  0  0  0  0  0  0  0  0
   -4.3408   -1.5576   28.6684 Cl  0  0  0  0  0  0  0  0  0  0  0  0
  -11.4895    3.1639   25.1336 C   0  0  1  0  0  0  0  0  0  0  0  0
  -11.3615    2.5657   23.9808 C   0  0  0  0  0  0  0  0  0  0  0  0
  -10.0937    2.1339   23.5164 C   0  0  0  0  0  0  0  0  0  0  0  0
   -9.9339    1.4663   22.2324 C   0  0  0  0  0  0  0  0  0  0  0  0
  -11.0251    1.3986   21.4082 C   0  0  0  0  0  0  0  0  0  0  0  0
  -12.2734    1.8380   21.8243 C   0  0  0  0  0  0  0  0  0  0  0  0
  -12.4027    2.4387   23.0008 C   0  0  0  0  0  0  0  0  0  0  0  0
  -12.8747    3.0965   25.8405 C   0  0  0  0  0  0  0  0  0  0  0  0
  -12.9441    3.4458   27.0764 C   0  0  0  0  0  0  0  0  0  0  0  0
  -12.1611    3.4225   28.0321 C   0  0  0  0  0  0  0  0  0  0  0  0
  -12.5022    3.7513   29.4781 C   0  0  0  0  0  0  0  0  0  0  0  0
  -13.8031    4.1712   29.7114 C   0  0  0  0  0  0  0  0  0  0  0  0
  -14.3982    3.8401   27.4544 C   0  0  0  0  0  0  0  0  0  0  0  0
  -14.7315    4.2070   28.7127 C   0  0  0  0  0  0  0  0  0  0  0  0
  -13.8214    2.8567   25.0393 O   0  0  0  0  0  0  0  0  0  0  0  0
  3  7  1  0
  7  8  1  0
  7  9  2  0
  2 10  1  0
 13 16  1  0
  6 17  1  0
 17 24  1  1
 24 25  1  0
 24 31  2  0
 17 18  1  0
 18 19  2  0
 19 20  1  0
 20 21  2  0
 21 22  1  0
 22 23  2  0
 23 18  1  0
 10 11  2  0
 11 12  1  0
 12 13  2  0
 13 15  1  0
 15 14  2  0
 14 10  1  0
 25 26  2  0
 26 27  1  0
 27 28  2  0
 28 30  1  0
 30 29  2  0
 29 25  1  0
  1  2  2  0
  2  5  1  0
  5  6  2  0
  6  4  1  0
  4  3  2  0
  3  1  1  0
M  END
$$$$
