No_6336-complexes_sdf/6BKW-FPZ/2024-09-17-14-21-01/
     RDKit          3D

 17 18  0  0  0  0  0  0  0  0999 V2000
   -7.7129    4.2099   27.0854 C   0  0  1  0  0  0  0  0  0  0  0  0
   -8.9133    4.4736   27.0998 C   0  0  0  0  0  0  0  0  0  0  0  0
   -9.7135    3.9633   26.0300 C   0  0  0  0  0  0  0  0  0  0  0  0
   -6.8420    4.9760   28.0851 C   0  0  0  0  0  0  0  0  0  0  0  0
   -9.9322    2.5915   25.9957 C   0  0  1  0  0  0  0  0  0  0  0  0
  -10.4230    2.0654   24.9049 C   0  0  0  0  0  0  0  0  0  0  0  0
  -10.1456    0.8605   24.4617 C   0  0  0  0  0  0  0  0  0  0  0  0
   -9.1816    0.3914   24.4778 C   0  0  0  0  0  0  0  0  0  0  0  0
   -8.2592    0.7563   25.6833 C   0  0  0  0  0  0  0  0  0  0  0  0
   -8.3271    2.1514   25.8338 C   0  0  2  0  0  0  0  0  0  0  0  0
   -7.5635    2.6971   27.1592 C   0  0  0  0  0  0  0  0  0  0  0  0
  -10.4236    2.0625   27.2627 C   0  0  0  0  0  0  0  0  0  0  0  0
  -11.3351    2.9621   24.1103 C   0  0  0  0  0  0  0  0  0  0  0  0
  -11.6511    2.6922   22.9399 C   0  0  0  0  0  0  0  0  0  0  0  0
  -12.4972    3.5832   22.1765 C   0  0  0  0  0  0  0  0  0  0  0  0
  -12.9077    4.7653   22.7740 C   0  0  0  0  0  0  0  0  0  0  0  0
  -12.6123    5.0075   24.1087 C   0  0  0  0  0  0  0  0  0  0  0  0
  1  2  1  0
  2  3  1  0
  1  4  1  1
  3  5  1  0
  5  6  1  0
  6  7  1  0
  8  9  1  0
  5 10  1  0
 10  9  1  1
  1 11  1  0
 10 11  1  0
  5 12  1  1
  6 13  1  0
 13 14  2  3
 14 15  1  0
 15 16  2  3
 16 17  1  0
  7  8  1  0
M  END
$$$$
