No_6328-complexes_sdf/6BKW-FPZ/2024-09-17-14-21-01/
     RDKit          3D

 21 22  0  0  0  0  0  0  0  0999 V2000
   -7.7129    4.2099   27.0854 C   0  0  0  0  0  0  0  0  0  0  0  0
   -8.2112    3.0637   26.9225 C   0  0  0  0  0  0  0  0  0  0  0  0
   -9.5629    2.7997   27.0678 C   0  0  0  0  0  0  0  0  0  0  0  0
   -8.5911    5.3704   27.2036 C   0  0  0  0  0  0  0  0  0  0  0  0
   -8.1116    6.7330   27.2869 C   0  0  0  0  0  0  0  0  0  0  0  0
  -10.4465    3.8282   27.2087 C   0  0  0  0  0  0  0  0  0  0  0  0
  -10.0139    5.1618   27.3218 C   0  0  0  0  0  0  0  0  0  0  0  0
  -10.0244    1.3746   26.9585 C   0  0  0  0  0  0  0  0  0  0  0  0
  -11.1510    1.0005   27.4709 C   0  0  0  0  0  0  0  0  0  0  0  0
  -12.0003    1.9787   28.1718 C   0  0  0  0  0  0  0  0  0  0  0  0
  -11.7723    3.4305   27.8998 C   0  0  0  0  0  0  0  0  0  0  0  0
   -8.1815    7.8678   26.8447 N   0  0  0  0  0  0  0  0  0  0  0  0
   -7.2234    6.8097   28.4221 O   0  0  0  0  0  0  0  0  0  0  0  0
  -12.6810    4.4212   28.4129 C   0  0  0  0  0  0  0  0  0  0  0  0
  -14.0394    4.2306   28.0436 C   0  0  0  0  0  0  0  0  0  0  0  0
  -14.6992    3.5861   28.5337 C   0  0  0  0  0  0  0  0  0  0  0  0
  -14.5996    3.3192   29.8496 C   0  0  0  0  0  0  0  0  0  0  0  0
  -15.3604    2.3696   30.5607 C   0  0  0  0  0  0  0  0  0  0  0  0
  -15.1302    2.2693   31.9693 C   0  0  0  0  0  0  0  0  0  0  0  0
  -14.1382    2.9653   32.6740 C   0  0  0  0  0  0  0  0  0  0  0  0
  -13.3999    3.8806   31.8101 C   0  0  0  0  0  0  0  0  0  0  0  0
  4  5  1  0
  5 12  2  0
  5 13  1  0
 11 14  1  0
 14 15  1  0
 15 16  1  0
 16 17  2  3
 17 18  1  0
 18 19  2  3
 19 20  1  0
 20 21  2  0
  1  2  2  0
  2  3  1  0
  6  7  1  0
  7  4  2  0
  4  1  1  0
  3  6  2  0
  6 11  1  0
 11 10  2  0
 10  9  1  0
  9  8  2  0
  8  3  1  0
M  END
$$$$
