No_6425-complexes_sdf/6BKW-FPZ/2024-09-17-14-21-01/
     RDKit          3D

 27 30  0  0  0  0  0  0  0  0999 V2000
   -7.7129    4.2099   27.0854 C   0  0  0  0  0  0  0  0  0  0  0  0
   -7.7814    5.1722   27.8972 C   0  0  0  0  0  0  0  0  0  0  0  0
   -7.2983    2.9533   27.5684 C   0  0  0  0  0  0  0  0  0  0  0  0
   -7.6908    1.8111   26.9553 C   0  0  0  0  0  0  0  0  0  0  0  0
   -8.6533    1.9165   25.9430 C   0  0  0  0  0  0  0  0  0  0  0  0
   -9.2376    3.0581   25.6387 C   0  0  0  0  0  0  0  0  0  0  0  0
   -8.8901    4.1760   26.2867 C   0  0  0  0  0  0  0  0  0  0  0  0
   -8.3894    6.3916   27.5666 N   0  0  0  0  0  0  0  0  0  0  0  0
   -6.9181    0.6076   27.4292 C   0  0  0  0  0  0  0  0  0  0  0  0
   -5.6629    0.6140   27.9235 C   0  0  0  0  0  0  0  0  0  0  0  0
   -5.0285   -0.5218   28.3540 C   0  0  0  0  0  0  0  0  0  0  0  0
   -5.6973   -1.7105   28.3416 C   0  0  0  0  0  0  0  0  0  0  0  0
   -7.2962   -0.7980   27.5364 C   0  0  0  0  0  0  0  0  0  0  0  0
   -8.8150   -0.8205   27.0133 C   0  0  1  0  0  0  0  0  0  0  0  0
   -6.8262   -1.8145   28.0052 C   0  0  0  0  0  0  0  0  0  0  0  0
   -9.3154    5.5419   26.1117 C   0  0  0  0  0  0  0  0  0  0  0  0
   -9.0737   -1.5465   25.8314 C   0  0  0  0  0  0  0  0  0  0  0  0
   -9.6974   -2.5752   26.0845 C   0  0  0  0  0  0  0  0  0  0  0  0
  -10.6554   -3.0749   25.1282 C   0  0  0  0  0  0  0  0  0  0  0  0
  -10.4979   -2.6500   23.8265 C   0  0  0  0  0  0  0  0  0  0  0  0
   -9.7036   -1.4767   23.5538 C   0  0  0  0  0  0  0  0  0  0  0  0
   -9.3585   -0.6495   24.7057 C   0  0  0  0  0  0  0  0  0  0  0  0
   -3.5737   -0.3078   28.9475 C   0  0  0  0  0  0  0  0  0  0  0  0
   -3.7288    0.3729   30.0021 F   0  0  0  0  0  0  0  0  0  0  0  0
   -2.8165    0.3636   28.1113 F   0  0  0  0  0  0  0  0  0  0  0  0
   -3.0225   -1.4259   29.2955 F   0  0  0  0  0  0  0  0  0  0  0  0
   -9.6785   -1.1109   28.1007 O   0  0  0  0  0  0  0  0  0  0  0  0
  2  8  1  0
  4  9  1  0
 13 14  1  0
  7 16  1  0
  8 16  1  0
 14 17  1  0
 11 23  1  0
 23 24  1  0
 23 25  1  0
 23 26  1  0
 14 27  1  1
  2  1  1  0
 17 18  2  0
 18 19  1  0
 19 20  2  0
 20 21  1  0
 21 22  2  0
 22 17  1  0
  9 10  2  0
 10 11  1  0
 11 12  2  0
 12 15  1  0
 15 13  2  0
 13  9  1  0
  1  3  2  0
  3  4  1  0
  4  5  2  0
  5  6  1  0
  6  7  2  0
  7  1  1  0
M  END
$$$$
