No_625-complexes_sdf/6BKW-FPZ/2024-09-17-14-21-01/
     RDKit          3D

 33 36  0  0  0  0  0  0  0  0999 V2000
   -7.9040    3.9820   27.1177 C   0  0  0  0  0  0  0  0  0  0  0  0
   -9.0711    4.3164   27.0630 C   0  0  0  0  0  0  0  0  0  0  0  0
   -9.5294    5.4517   27.7215 C   0  0  0  0  0  0  0  0  0  0  0  0
   -6.9328    4.7309   27.8881 C   0  0  0  0  0  0  0  0  0  0  0  0
   -7.3377    5.8421   28.5537 C   0  0  0  0  0  0  0  0  0  0  0  0
   -8.6411    6.2609   28.3972 C   0  0  0  0  0  0  0  0  0  0  0  0
  -10.1663    3.5968   26.3594 C   0  0  0  0  0  0  0  0  0  0  0  0
  -10.1938    3.8160   24.9809 C   0  0  0  0  0  0  0  0  0  0  0  0
  -10.9341    3.1326   24.0515 C   0  0  0  0  0  0  0  0  0  0  0  0
  -11.8461    2.2450   24.5637 C   0  0  0  0  0  0  0  0  0  0  0  0
  -11.1683    2.9293   26.9007 C   0  0  0  0  0  0  0  0  0  0  0  0
  -11.2799    2.7047   28.3602 C   0  0  0  0  0  0  0  0  0  0  0  0
  -12.0406    2.1566   26.0336 C   0  0  0  0  0  0  0  0  0  0  0  0
  -10.7640    3.3582   22.6256 C   0  0  2  0  0  0  0  0  0  0  0  0
  -10.2555    2.3976   21.8453 C   0  0  0  0  0  0  0  0  0  0  0  0
  -11.0804    4.6468   22.0744 C   0  0  0  0  0  0  0  0  0  0  0  0
  -12.5469    3.0173   28.9733 C   0  0  0  0  0  0  0  0  0  0  0  0
  -13.1372    2.1448   29.8410 C   0  0  0  0  0  0  0  0  0  0  0  0
  -14.3373    2.5527   30.4929 C   0  0  0  0  0  0  0  0  0  0  0  0
  -14.8521    3.8202   30.2195 C   0  0  0  0  0  0  0  0  0  0  0  0
  -14.2764    4.6627   29.2971 C   0  0  0  0  0  0  0  0  0  0  0  0
  -13.0993    4.3108   28.6855 C   0  0  0  0  0  0  0  0  0  0  0  0
   -5.6753    4.2252   28.0591 O   0  0  0  0  0  0  0  0  0  0  0  0
  -10.4006    2.2700   20.5556 C   0  0  0  0  0  0  0  0  0  0  0  0
   -9.4373    1.3284   22.4714 C   0  0  0  0  0  0  0  0  0  0  0  0
   -9.2509    0.0515   21.8866 C   0  0  0  0  0  0  0  0  0  0  0  0
   -8.3897   -0.8389   22.5689 C   0  0  0  0  0  0  0  0  0  0  0  0
   -7.6865   -0.4795   23.6813 C   0  0  0  0  0  0  0  0  0  0  0  0
   -6.8875   -1.4108   24.3808 C   0  0  0  0  0  0  0  0  0  0  0  0
   -6.2421   -0.9677   25.6032 C   0  0  0  0  0  0  0  0  0  0  0  0
   -6.7909    0.1529   26.2748 C   0  0  0  0  0  0  0  0  0  0  0  0
   -7.8396    0.8952   25.7129 C   0  0  0  0  0  0  0  0  0  0  0  0
   -8.3152    0.5779   24.4593 C   0  0  0  0  0  0  0  0  0  0  0  0
  2  7  1  0
 11 12  1  0
  9 14  1  0
 14 15  1  0
 14 16  1  1
 12 17  1  0
  4 23  1  0
 15 24  1  0
 15 25  1  0
 25 26  2  3
 26 27  1  0
 27 28  1  0
 17 18  2  0
 18 19  1  0
 19 20  2  0
 20 21  1  0
 21 22  2  0
 22 17  1  0
 28 29  2  0
 29 30  1  0
 30 31  2  0
 31 32  1  0
 32 33  2  0
 33 28  1  0
  1  2  2  0
  2  3  1  0
  3  6  2  0
  6  5  1  0
  5  4  2  0
  4  1  1  0
  7  8  2  0
  8  9  1  0
  9 10  2  0
 10 13  1  0
 13 11  2  0
 11  7  1  0
M  END
$$$$
