No_6190-complexes_sdf/6BKW-FPZ/2024-09-17-14-21-01/
     RDKit          3D

 15 15  0  0  0  0  0  0  0  0999 V2000
   -7.2496    3.8871   27.4508 C   0  0  0  0  0  0  0  0  0  0  0  0
   -7.6161    2.7143   27.1523 C   0  0  0  0  0  0  0  0  0  0  0  0
   -8.8302    2.4659   26.5056 C   0  0  0  0  0  0  0  0  0  0  0  0
   -6.1096    4.2818   28.2555 C   0  0  0  0  0  0  0  0  0  0  0  0
   -9.6582    3.4917   26.1916 C   0  0  0  0  0  0  0  0  0  0  0  0
   -9.2732    4.7986   26.5150 C   0  0  0  0  0  0  0  0  0  0  0  0
   -8.1018    5.0187   27.2056 C   0  0  0  0  0  0  0  0  0  0  0  0
  -10.9065    3.3510   25.4123 C   0  0  0  0  0  0  0  0  0  0  0  0
  -11.0111    3.5749   24.1621 N   0  0  0  0  0  0  0  0  0  0  0  0
  -10.1518    4.0245   23.4203 C   0  0  0  0  0  0  0  0  0  0  0  0
  -12.3389    3.3562   23.5273 C   0  0  0  0  0  0  0  0  0  0  0  0
  -12.0369    2.9278   26.2285 C   0  0  0  0  0  0  0  0  0  0  0  0
  -12.3648    3.6208   27.2587 C   0  0  0  0  0  0  0  0  0  0  0  0
  -13.4368    3.2758   28.1410 C   0  0  0  0  0  0  0  0  0  0  0  0
  -14.2179    2.2487   27.6892 C   0  0  0  0  0  0  0  0  0  0  0  0
  1  4  1  0
  5  8  1  0
  8  9  1  0
  9 10  1  0
  9 11  1  0
  8 12  1  0
 12 13  1  0
 13 14  2  3
 14 15  1  0
  1  2  2  0
  2  3  1  0
  3  5  2  0
  5  6  1  0
  6  7  2  0
  7  1  1  0
M  END
$$$$
