No_6074-complexes_sdf/6BKW-FPZ/2024-09-17-14-21-01/
     RDKit          3D

 12 13  0  0  0  0  0  0  0  0999 V2000
   -7.7129    4.2099   27.0854 C   0  0  0  0  0  0  0  0  0  0  0  0
   -8.2112    3.0637   26.9225 C   0  0  0  0  0  0  0  0  0  0  0  0
   -9.4446    2.8304   26.1868 C   0  0  0  0  0  0  0  0  0  0  0  0
   -8.4697    5.3956   26.7238 C   0  0  0  0  0  0  0  0  0  0  0  0
   -9.6172    5.2111   25.9513 C   0  0  0  0  0  0  0  0  0  0  0  0
  -10.0424    3.9782   25.6873 C   0  0  0  0  0  0  0  0  0  0  0  0
   -7.8256    6.9333   27.0525 Cl  0  0  0  0  0  0  0  0  0  0  0  0
   -7.4841    1.8412   27.3998 C   0  0  0  0  0  0  0  0  0  0  0  0
   -8.0121    0.5246   27.2806 C   0  0  0  0  0  0  0  0  0  0  0  0
   -9.2955    0.5018   26.6130 C   0  0  0  0  0  0  0  0  0  0  0  0
   -9.9608    1.5251   26.0413 C   0  0  0  0  0  0  0  0  0  0  0  0
   -7.4589   -0.4499   27.8404 F   0  0  0  0  0  0  0  0  0  0  0  0
  4  7  1  0
  9 12  1  0
  3 11  1  0
 11 10  2  0
 10  9  1  0
  9  8  2  0
  8  2  1  0
  1  2  2  0
  2  3  1  0
  3  6  2  0
  6  5  1  0
  5  4  2  0
  4  1  1  0
M  END
$$$$
