No_6221-complexes_sdf/6BKW-FPZ/2024-09-17-14-21-01/
     RDKit          3D

 22 23  0  0  0  0  0  0  0  0999 V2000
   -7.9040    3.9820   27.1177 C   0  0  0  0  0  0  0  0  0  0  0  0
   -9.0711    4.3164   27.0630 C   0  0  0  0  0  0  0  0  0  0  0  0
   -9.5182    5.5541   27.5777 C   0  0  0  0  0  0  0  0  0  0  0  0
   -7.4468    2.6843   26.6499 C   0  0  0  0  0  0  0  0  0  0  0  0
   -8.3856    1.7878   26.2216 C   0  0  0  0  0  0  0  0  0  0  0  0
   -9.6812    2.2328   26.0889 C   0  0  0  0  0  0  0  0  0  0  0  0
  -10.0147    3.4312   26.5259 C   0  0  0  0  0  0  0  0  0  0  0  0
   -7.9143    0.4677   25.8109 C   0  0  0  0  0  0  0  0  0  0  0  0
   -7.9163    0.1471   24.6808 O   0  0  0  0  0  0  0  0  0  0  0  0
   -7.4978   -0.3883   26.7373 O   0  0  0  0  0  0  0  0  0  0  0  0
  -10.7078    5.7047   28.0799 F   0  0  0  0  0  0  0  0  0  0  0  0
   -8.7460    6.0229   28.6997 F   0  0  0  0  0  0  0  0  0  0  0  0
   -9.2097    6.6077   26.7039 F   0  0  0  0  0  0  0  0  0  0  0  0
   -6.9636   -1.2427   26.8132 C   0  0  0  0  0  0  0  0  0  0  0  0
   -7.6202   -2.4670   26.9488 C   0  0  0  0  0  0  0  0  0  0  0  0
   -8.8080   -2.4292   27.6107 C   0  0  0  0  0  0  0  0  0  0  0  0
   -9.7963   -2.4516   27.3654 C   0  0  0  0  0  0  0  0  0  0  0  0
  -11.0667   -2.2068   28.2285 C   0  0  0  0  0  0  0  0  0  0  0  0
  -12.3390   -1.8505   27.8406 C   0  0  0  0  0  0  0  0  0  0  0  0
  -12.5243   -1.9009   26.4490 C   0  0  0  0  0  0  0  0  0  0  0  0
  -11.5058   -2.1361   25.5725 C   0  0  0  0  0  0  0  0  0  0  0  0
  -10.2771   -2.2436   25.9788 C   0  0  0  0  0  0  0  0  0  0  0  0
  2  3  1  0
  5  8  1  0
  8  9  2  0
  8 10  1  0
  3 11  1  0
  3 12  1  0
  3 13  1  0
 10 14  1  0
 14 15  1  0
 15 16  1  0
 16 17  1  0
 17 18  2  0
 18 19  1  0
 19 20  2  0
 20 21  1  0
 21 22  2  0
 22 17  1  0
  1  2  2  0
  2  7  1  0
  7  6  2  0
  6  5  1  0
  5  4  2  0
  4  1  1  0
M  END
$$$$
