No_6322-complexes_sdf/6BKW-FPZ/2024-09-17-14-21-01/
     RDKit          3D

 28 31  0  0  0  0  0  0  0  0999 V2000
   -7.7129    4.2099   27.0854 C   0  0  0  0  0  0  0  0  0  0  0  0
   -7.7814    5.1722   27.8972 C   0  0  0  0  0  0  0  0  0  0  0  0
   -8.8998    3.8713   26.3707 C   0  0  0  0  0  0  0  0  0  0  0  0
   -8.9563    2.6796   25.5490 C   0  0  0  0  0  0  0  0  0  0  0  0
   -8.8131    6.1334   27.9344 C   0  0  0  0  0  0  0  0  0  0  0  0
   -9.9804    5.8121   27.1929 C   0  0  0  0  0  0  0  0  0  0  0  0
   -9.9861    4.6836   26.4532 C   0  0  0  0  0  0  0  0  0  0  0  0
   -9.7347    1.7154   26.0600 C   0  0  0  0  0  0  0  0  0  0  0  0
   -9.7730    0.4228   25.3787 C   0  0  0  0  0  0  0  0  0  0  0  0
  -10.5512   -0.6327   25.9278 C   0  0  0  0  0  0  0  0  0  0  0  0
  -11.2227   -0.4001   27.1709 C   0  0  0  0  0  0  0  0  0  0  0  0
  -11.1425    0.8042   27.8490 C   0  0  0  0  0  0  0  0  0  0  0  0
  -10.3887    1.8408   27.3676 C   0  0  0  0  0  0  0  0  0  0  0  0
  -11.9693   -1.4564   27.7217 N   0  0  0  0  0  0  0  0  0  0  0  0
  -11.3609   -2.3176   28.3636 C   0  0  2  0  0  0  0  0  0  0  0  0
  -12.1268   -3.2293   29.1540 C   0  0  0  0  0  0  0  0  0  0  0  0
  -13.3635   -1.4673   27.5690 C   0  0  0  0  0  0  0  0  0  0  0  0
  -14.1148   -2.3366   28.3107 C   0  0  0  0  0  0  0  0  0  0  0  0
  -13.4669   -3.2777   29.0900 C   0  0  0  0  0  0  0  0  0  0  0  0
  -10.0191   -2.2980   28.5937 N   0  0  0  0  0  0  0  0  0  0  0  0
   -9.0940   -3.1184   28.3558 C   0  0  0  0  0  0  0  0  0  0  0  0
   -7.7918   -2.7317   28.5470 C   0  0  0  0  0  0  0  0  0  0  0  0
   -7.1017   -1.9465   28.5606 C   0  0  0  0  0  0  0  0  0  0  0  0
   -5.7263   -1.6972   28.9319 C   0  0  0  0  0  0  0  0  0  0  0  0
   -5.0293   -0.4194   28.9058 C   0  0  0  0  0  0  0  0  0  0  0  0
   -5.6163    0.6317   28.1549 C   0  0  0  0  0  0  0  0  0  0  0  0
   -6.9090    0.4723   27.6131 C   0  0  0  0  0  0  0  0  0  0  0  0
   -7.5802   -0.6413   27.7367 C   0  0  0  0  0  0  0  0  0  0  0  0
  3  4  1  0
 11 14  1  0
 14 15  1  0
 14 17  1  0
 16 19  1  0
 18 19  1  0
 15 20  1  1
 20 21  1  0
 21 22  2  3
 22 23  1  0
  4  8  1  0
 15 16  1  0
 18 17  1  0
 23 24  2  0
 24 25  1  0
 25 26  2  0
 26 27  1  0
 27 28  2  0
 28 23  1  0
  8  9  2  0
  9 10  1  0
 10 11  2  0
 11 12  1  0
 12 13  2  0
 13  8  1  0
  1  2  2  0
  2  5  1  0
  5  6  2  0
  6  7  1  0
  7  3  2  0
  3  1  1  0
M  END
$$$$
