No_6432-complexes_sdf/6BKW-FPZ/2024-09-17-14-21-01/
     RDKit          3D

 13 14  0  0  0  0  0  0  0  0999 V2000
   -7.9040    3.9820   27.1177 C   0  0  0  0  0  0  0  0  0  0  0  0
   -9.0711    4.3164   27.0630 C   0  0  0  0  0  0  0  0  0  0  0  0
   -9.5182    5.5541   27.5777 C   0  0  0  0  0  0  0  0  0  0  0  0
   -6.9424    4.7983   27.8424 C   0  0  0  0  0  0  0  0  0  0  0  0
   -7.3526    5.9739   28.3909 C   0  0  0  0  0  0  0  0  0  0  0  0
   -8.6479    6.3742   28.2169 C   0  0  0  0  0  0  0  0  0  0  0  0
  -10.2021    3.5782   26.4472 C   0  0  0  0  0  0  0  0  0  0  0  0
  -10.5648    3.5707   25.2641 C   0  0  0  0  0  0  0  0  0  0  0  0
  -11.5488    2.8015   24.5953 C   0  0  0  0  0  0  0  0  0  0  0  0
  -12.0945    1.7945   25.3633 C   0  0  0  0  0  0  0  0  0  0  0  0
  -10.9166    2.3695   27.0646 C   0  0  0  0  0  0  0  0  0  0  0  0
  -11.7854    1.5886   26.6279 C   0  0  0  0  0  0  0  0  0  0  0  0
  -10.0123    4.6340   24.3679 N   0  0  0  0  0  0  0  0  0  0  0  0
  2  7  1  0
  8 13  1  0
  7  8  2  0
  8  9  1  0
  9 10  2  0
 10 12  1  0
 12 11  2  0
 11  7  1  0
  1  2  2  0
  2  3  1  0
  3  6  2  0
  6  5  1  0
  5  4  2  0
  4  1  1  0
M  END
$$$$
