No_6703-complexes_sdf/6BKW-FPZ/2024-09-17-14-21-01/
     RDKit          3D

 25 28  0  0  0  0  0  0  0  0999 V2000
   -7.7129    4.2099   27.0854 C   0  0  0  0  0  0  0  0  0  0  0  0
   -8.2112    3.0637   26.9225 C   0  0  0  0  0  0  0  0  0  0  0  0
   -9.4446    2.8304   26.1868 C   0  0  0  0  0  0  0  0  0  0  0  0
   -8.4697    5.3956   26.7238 C   0  0  0  0  0  0  0  0  0  0  0  0
   -9.6172    5.2111   25.9513 C   0  0  0  0  0  0  0  0  0  0  0  0
  -10.0424    3.9782   25.6873 C   0  0  0  0  0  0  0  0  0  0  0  0
   -7.5056    1.8167   27.4088 C   0  0  0  0  0  0  0  0  0  0  0  0
   -8.0423    0.5366   27.2920 C   0  0  0  0  0  0  0  0  0  0  0  0
   -9.3616    0.5005   26.6856 C   0  0  0  0  0  0  0  0  0  0  0  0
   -9.9941    1.5661   26.0723 C   0  0  0  0  0  0  0  0  0  0  0  0
   -7.9428    6.7510   27.0021 C   0  0  0  0  0  0  0  0  0  0  0  0
   -8.4762    7.8279   26.5815 O   0  0  0  0  0  0  0  0  0  0  0  0
   -7.2113    6.8405   28.1671 O   0  0  0  0  0  0  0  0  0  0  0  0
   -7.4048   -0.5661   27.8828 C   0  0  0  0  0  0  0  0  0  0  0  0
   -6.0643   -0.4986   28.2190 C   0  0  0  0  0  0  0  0  0  0  0  0
   -5.3930   -1.5621   28.9625 C   0  0  0  0  0  0  0  0  0  0  0  0
   -6.1740   -2.6649   29.2407 C   0  0  0  0  0  0  0  0  0  0  0  0
   -8.1246   -1.7276   28.2634 C   0  0  0  0  0  0  0  0  0  0  0  0
   -7.5205   -2.7226   28.9876 C   0  0  0  0  0  0  0  0  0  0  0  0
   -3.9781   -1.4161   29.2526 C   0  0  0  0  0  0  0  0  0  0  0  0
   -3.0601   -1.7627   28.4883 C   0  0  0  0  0  0  0  0  0  0  0  0
   -1.7221   -1.2808   28.6589 C   0  0  0  0  0  0  0  0  0  0  0  0
   -1.3567   -0.3339   29.0701 C   0  0  0  0  0  0  0  0  0  0  0  0
   -3.7674   -0.3683   30.3636 C   0  0  0  0  0  0  0  0  0  0  0  0
   -2.3357    0.1647   30.3651 C   0  0  0  0  0  0  0  0  0  0  0  0
  4 11  1  0
 11 12  2  0
 11 13  1  0
  8 14  1  0
 16 20  1  0
 14 15  2  0
 15 16  1  0
 16 17  2  0
 17 19  1  0
 19 18  2  0
 18 14  1  0
  1  2  2  0
  3  6  2  0
  6  5  1  0
  5  4  2  0
  4  1  1  0
  2  3  1  0
  3 10  1  0
 10  9  2  0
  9  8  1  0
  8  7  2  0
  7  2  1  0
 20 21  2  0
 21 22  1  0
 22 23  2  0
 23 25  1  0
 25 24  2  0
 24 20  1  0
M  END
$$$$
