No_6119-complexes_sdf/6BKW-FPZ/2024-09-17-14-21-01/
     RDKit          3D

 25 27  0  0  0  0  0  0  0  0999 V2000
   -7.9040    3.9820   27.1177 C   0  0  0  0  0  0  0  0  0  0  0  0
   -9.0711    4.3164   27.0630 C   0  0  0  0  0  0  0  0  0  0  0  0
   -9.9692    3.7224   26.1073 C   0  0  0  0  0  0  0  0  0  0  0  0
   -6.9787    4.6761   28.1003 C   0  0  0  0  0  0  0  0  0  0  0  0
   -9.4538    2.6801   25.3673 C   0  0  0  0  0  0  0  0  0  0  0  0
   -8.1927    2.1957   25.6621 C   0  0  0  0  0  0  0  0  0  0  0  0
   -7.4333    2.8255   26.6299 C   0  0  0  0  0  0  0  0  0  0  0  0
  -10.3181    2.0008   24.3846 C   0  0  1  0  0  0  0  0  0  0  0  0
  -10.7358    2.6411   23.3159 C   0  0  0  0  0  0  0  0  0  0  0  0
  -10.4419    4.1062   23.1774 C   0  0  0  0  0  0  0  0  0  0  0  0
  -10.8483    4.7955   21.9913 C   0  0  0  0  0  0  0  0  0  0  0  0
  -11.4234    4.1253   20.9820 C   0  0  0  0  0  0  0  0  0  0  0  0
  -11.6887    2.7449   21.0363 C   0  0  0  0  0  0  0  0  0  0  0  0
  -11.2724    2.0279   22.1719 C   0  0  0  0  0  0  0  0  0  0  0  0
  -10.5495    0.6109   24.5522 C   0  0  0  0  0  0  0  0  0  0  0  0
  -11.8180    0.3273   25.0161 C   0  0  0  0  0  0  0  0  0  0  0  0
  -12.4709    0.8401   25.8824 C   0  0  0  0  0  0  0  0  0  0  0  0
  -13.7808    0.4222   26.3547 C   0  0  0  0  0  0  0  0  0  0  0  0
  -14.5312    1.0828   27.3496 C   0  0  0  0  0  0  0  0  0  0  0  0
  -13.9079    2.2236   27.9637 C   0  0  0  0  0  0  0  0  0  0  0  0
  -12.6474    2.6711   27.6250 C   0  0  0  0  0  0  0  0  0  0  0  0
  -11.9258    1.9959   26.6748 C   0  0  0  0  0  0  0  0  0  0  0  0
  -12.4449   -0.8502   24.2994 C   0  0  0  0  0  0  0  0  0  0  0  0
  -13.4792   -0.7380   23.4980 C   0  0  0  0  0  0  0  0  0  0  0  0
  -13.9891   -1.8039   22.7866 C   0  0  0  0  0  0  0  0  0  0  0  0
  1  4  1  0
  5  8  1  0
  8 15  1  6
 15 16  1  0
 16 23  1  0
 23 24  2  3
 24 25  1  0
 16 17  1  0
  8  9  1  0
 17 18  2  0
 18 19  1  0
 19 20  2  0
 20 21  1  0
 21 22  2  0
 22 17  1  0
  9 10  2  0
 10 11  1  0
 11 12  2  0
 12 13  1  0
 13 14  2  0
 14  9  1  0
  1  2  2  0
  2  3  1  0
  3  5  2  0
  5  6  1  0
  6  7  2  0
  7  1  1  0
M  END
$$$$
