No_6438-complexes_sdf/6BKW-FPZ/2024-09-17-14-21-01/
     RDKit          3D

 20 22  0  0  0  0  0  0  0  0999 V2000
   -7.9040    3.9820   27.1177 C   0  0  0  0  0  0  0  0  0  0  0  0
   -7.8663    4.8694   27.9238 C   0  0  0  0  0  0  0  0  0  0  0  0
   -9.0806    3.1428   27.1220 C   0  0  1  0  0  0  0  0  0  0  0  0
  -10.0909    3.4892   26.5180 C   0  0  1  0  0  0  0  0  0  0  0  0
   -8.8400    5.9983   27.4627 C   0  0  0  0  0  0  0  0  0  0  0  0
  -10.7252    4.8136   26.7238 C   0  0  0  0  0  0  0  0  0  0  0  0
  -10.2354    5.8204   27.5431 C   0  0  0  0  0  0  0  0  0  0  0  0
  -10.6066    2.8079   25.3225 C   0  0  0  0  0  0  0  0  0  0  0  0
  -10.0811    3.1527   24.1662 C   0  0  0  0  0  0  0  0  0  0  0  0
  -10.2853    2.5029   22.9212 C   0  0  0  0  0  0  0  0  0  0  0  0
  -11.3508    1.6990   25.4379 C   0  0  0  0  0  0  0  0  0  0  0  0
  -11.6681    0.9426   24.2546 C   0  0  0  0  0  0  0  0  0  0  0  0
  -11.1292    1.3778   22.9918 C   0  0  0  0  0  0  0  0  0  0  0  0
   -9.0453    1.8065   27.7262 C   0  0  0  0  0  0  0  0  0  0  0  0
  -12.5237   -0.2044   24.2563 C   0  0  0  0  0  0  0  0  0  0  0  0
  -12.8860   -0.7852   23.4164 C   0  0  0  0  0  0  0  0  0  0  0  0
  -13.7445   -1.9166   23.5350 C   0  0  0  0  0  0  0  0  0  0  0  0
  -14.1533   -2.2581   24.7907 C   0  0  0  0  0  0  0  0  0  0  0  0
  -13.7423   -1.5677   25.8728 C   0  0  0  0  0  0  0  0  0  0  0  0
  -12.9069   -0.4988   25.7069 C   0  0  0  0  0  0  0  0  0  0  0  0
  1  2  1  0
  1  3  1  0
  3  4  1  0
  2  5  1  0
  4  6  1  0
  5  7  1  0
  6  7  1  0
  4  8  1  6
  3 14  1  6
 12 15  1  0
 15 16  2  0
 16 17  1  0
 17 18  2  0
 18 19  1  0
 19 20  2  0
 20 15  1  0
  8  9  2  0
  9 10  1  0
 10 13  2  0
 13 12  1  0
 12 11  2  0
 11  8  1  0
M  END
$$$$
