No_6998-complexes_sdf/6BKW-FPZ/2024-09-17-14-21-01/
     RDKit          3D

 16 19  0  0  0  0  0  0  0  0999 V2000
   -7.9040    3.9820   27.1177 C   0  0  0  0  0  0  0  0  0  0  0  0
   -7.8663    4.8694   27.9238 C   0  0  0  0  0  0  0  0  0  0  0  0
   -9.0501    3.8017   26.2617 C   0  0  0  0  0  0  0  0  0  0  0  0
  -10.0189    4.7608   26.3707 C   0  0  0  0  0  0  0  0  0  0  0  0
   -8.6770    5.9780   27.9222 C   0  0  0  0  0  0  0  0  0  0  0  0
   -9.8040    5.8752   27.0958 C   0  0  0  0  0  0  0  0  0  0  0  0
   -9.1434    2.6226   25.4210 C   0  0  0  0  0  0  0  0  0  0  0  0
   -8.6414    1.4248   25.8504 C   0  0  0  0  0  0  0  0  0  0  0  0
   -8.1044    1.3276   27.2198 C   0  0  0  0  0  0  0  0  0  0  0  0
   -7.3669    2.5912   27.5398 C   0  0  0  0  0  0  0  0  0  0  0  0
   -9.9596    2.7053   24.2375 C   0  0  0  0  0  0  0  0  0  0  0  0
  -10.6514    3.8318   23.8946 C   0  0  0  0  0  0  0  0  0  0  0  0
  -10.7907    4.8492   25.0738 C   0  0  0  0  0  0  0  0  0  0  0  0
   -8.7486    0.2079   25.1085 C   0  0  0  0  0  0  0  0  0  0  0  0
   -9.0287    0.2386   23.8732 N   0  0  0  0  0  0  0  0  0  0  0  0
   -9.8468    1.4727   23.4055 C   0  0  0  0  0  0  0  0  0  0  0  0
  8  9  1  0
  1 10  1  0
  9 10  1  0
  7  8  2  0
  8 14  1  0
 14 15  2  0
 15 16  1  0
 16 11  2  0
  1  2  2  0
  2  5  1  0
  5  6  2  0
  6  4  1  0
  3  1  1  0
  3  4  2  0
  4 13  1  0
 13 12  2  0
 12 11  1  0
 11  7  1  0
  7  3  1  0
M  END
$$$$
