No_6200-complexes_sdf/6BKW-FPZ/2024-09-17-14-21-01/
     RDKit          3D

 11 12  0  0  0  0  0  0  0  0999 V2000
   -7.2496    3.8871   27.4508 C   0  0  0  0  0  0  0  0  0  0  0  0
   -7.9379    4.9063   27.8518 C   0  0  0  0  0  0  0  0  0  0  0  0
   -9.3376    4.8647   27.7795 C   0  0  0  0  0  0  0  0  0  0  0  0
   -7.8544    2.6294   27.0414 C   0  0  0  0  0  0  0  0  0  0  0  0
   -9.2665    2.6175   27.0340 C   0  0  0  0  0  0  0  0  0  0  0  0
   -9.9836    3.7042   27.4150 C   0  0  0  0  0  0  0  0  0  0  0  0
   -7.3185    1.4719   26.7855 N   0  0  0  0  0  0  0  0  0  0  0  0
   -7.9896    0.5536   26.1169 C   0  0  0  0  0  0  0  0  0  0  0  0
   -9.9275    1.4892   26.5612 N   0  0  0  0  0  0  0  0  0  0  0  0
   -9.3043    0.4444   26.2115 C   0  0  0  0  0  0  0  0  0  0  0  0
   -7.3348    6.0601   28.1956 O   0  0  0  0  0  0  0  0  0  0  0  0
  2 11  1  0
  1  2  2  0
  2  3  1  0
  3  6  2  0
  6  5  1  0
  4  1  1  0
  4  5  2  0
  5  9  1  0
  9 10  2  0
 10  8  1  0
  8  7  2  0
  7  4  1  0
M  END
$$$$
