No_6375-complexes_sdf/6BKW-FPZ/2024-09-17-14-21-01/
     RDKit          3D

 40 44  0  0  0  0  0  0  0  0999 V2000
   -7.2496    3.8871   27.4508 C   0  0  0  0  0  0  0  0  0  0  0  0
   -8.5096    4.0291   27.2770 C   0  0  0  0  0  0  0  0  0  0  0  0
   -9.3502    2.8685   26.8763 C   0  0  0  0  0  0  0  0  0  0  0  0
   -6.6288    2.5513   27.4938 C   0  0  0  0  0  0  0  0  0  0  0  0
   -7.4365    1.4714   27.2032 C   0  0  0  0  0  0  0  0  0  0  0  0
   -8.7772    1.6579   26.9338 C   0  0  0  0  0  0  0  0  0  0  0  0
   -9.1078    5.3660   27.2249 C   0  0  0  0  0  0  0  0  0  0  0  0
  -10.3427    5.6219   27.5405 N   0  0  0  0  0  0  0  0  0  0  0  0
   -8.2650    6.5120   26.9116 C   0  0  0  0  0  0  0  0  0  0  0  0
   -8.3852    7.7866   27.0374 C   0  0  0  0  0  0  0  0  0  0  0  0
   -5.3835    2.2050   27.7823 N   0  0  0  0  0  0  0  0  0  0  0  0
   -5.2401    0.8679   27.7392 C   0  0  0  0  0  0  0  0  0  0  0  0
   -6.5069    0.3847   27.3861 C   0  0  0  0  0  0  0  0  0  0  0  0
   -4.0154    0.1801   28.0120 C   0  0  0  0  0  0  0  0  0  0  0  0
   -3.3474    0.2451   28.8230 C   0  0  0  0  0  0  0  0  0  0  0  0
   -3.6652   -0.7487   26.9063 C   0  0  0  0  0  0  0  0  0  0  0  0
   -2.1608   -0.5287   29.1760 C   0  0  0  0  0  0  0  0  0  0  0  0
   -2.4762   -1.4978   27.0092 C   0  0  0  0  0  0  0  0  0  0  0  0
   -1.7025   -1.3627   28.1813 C   0  0  0  0  0  0  0  0  0  0  0  0
   -0.4913   -2.1195   28.3998 C   0  0  0  0  0  0  0  0  0  0  0  0
   -0.7648   -3.1679   28.5915 F   0  0  0  0  0  0  0  0  0  0  0  0
    0.2905   -1.9979   27.2429 F   0  0  0  0  0  0  0  0  0  0  0  0
    0.3138   -1.5363   29.3431 F   0  0  0  0  0  0  0  0  0  0  0  0
   -7.3354    8.6375   26.6927 C   0  0  0  0  0  0  0  0  0  0  0  0
   -9.5656    0.4587   26.5869 C   0  0  0  0  0  0  0  0  0  0  0  0
   -9.7648   -0.1588   25.7845 C   0  0  0  0  0  0  0  0  0  0  0  0
  -10.5888   -1.3480   25.6055 C   0  0  0  0  0  0  0  0  0  0  0  0
  -10.3459    0.0083   27.8576 C   0  0  0  0  0  0  0  0  0  0  0  0
  -11.1547   -1.0248   27.9415 C   0  0  0  0  0  0  0  0  0  0  0  0
  -11.2861   -1.7404   26.7518 C   0  0  0  0  0  0  0  0  0  0  0  0
  -12.4327   -3.2384   26.6484 Br  0  0  0  0  0  0  0  0  0  0  0  0
   -7.2751    9.7155   27.4066 C   0  0  0  0  0  0  0  0  0  0  0  0
   -9.0250    0.0952   24.3990 C   0  0  0  0  0  0  0  0  0  0  0  0
   -8.0743   -0.6674   23.9707 C   0  0  0  0  0  0  0  0  0  0  0  0
   -7.6495   -1.8884   24.6299 C   0  0  0  0  0  0  0  0  0  0  0  0
   -6.5804   -2.6381   24.1491 C   0  0  0  0  0  0  0  0  0  0  0  0
   -6.0986   -3.7481   24.7872 C   0  0  0  0  0  0  0  0  0  0  0  0
   -6.7598   -4.1519   25.9702 C   0  0  0  0  0  0  0  0  0  0  0  0
   -7.8311   -3.4341   26.4835 C   0  0  0  0  0  0  0  0  0  0  0  0
   -8.2187   -2.3253   25.8969 C   0  0  0  0  0  0  0  0  0  0  0  0
  2  7  1  0
  7  8  2  0
  7  9  1  0
  9 10  1  0
  4 11  1  0
 11 12  2  0
  5 13  1  0
 12 13  1  0
 12 14  1  0
 19 20  1  0
 20 21  1  0
 20 22  1  0
 20 23  1  0
 10 24  1  0
  6 25  1  0
 30 31  1  0
 24 32  1  0
 26 33  1  0
 33 34  2  3
 34 35  1  0
 25 26  1  0
 26 27  2  0
 27 30  1  0
 30 29  2  0
 29 28  1  0
 28 25  2  0
  1  2  2  0
  2  3  1  0
  3  6  2  0
  6  5  1  0
  5  4  2  0
  4  1  1  0
 35 36  2  0
 36 37  1  0
 37 38  2  0
 38 39  1  0
 39 40  2  0
 40 35  1  0
 14 15  2  0
 15 17  1  0
 17 19  2  0
 19 18  1  0
 18 16  2  0
 16 14  1  0
M  END
$$$$
