No_6747-complexes_sdf/6BKW-FPZ/2024-09-17-14-21-01/
     RDKit          3D

 17 18  0  0  0  0  0  0  0  0999 V2000
   -7.9040    3.9820   27.1177 C   0  0  0  0  0  0  0  0  0  0  0  0
   -7.8663    4.8694   27.9238 C   0  0  0  0  0  0  0  0  0  0  0  0
   -7.4547    2.7080   27.4594 C   0  0  0  0  0  0  0  0  0  0  0  0
   -7.9337    1.5946   26.8372 C   0  0  0  0  0  0  0  0  0  0  0  0
   -8.9603    1.7678   26.1391 C   0  0  0  0  0  0  0  0  0  0  0  0
   -9.5151    2.9338   25.7451 C   0  0  0  0  0  0  0  0  0  0  0  0
   -9.0514    3.9881   26.3110 C   0  0  0  0  0  0  0  0  0  0  0  0
   -8.1879    6.2399   27.5870 N   0  0  0  0  0  0  0  0  0  0  0  0
   -9.1124    6.5020   26.6175 C   0  0  0  0  0  0  0  0  0  0  0  0
   -9.5979    5.3586   25.9821 C   0  0  0  0  0  0  0  0  0  0  0  0
   -7.2949    0.2658   27.2205 C   0  0  0  0  0  0  0  0  0  0  0  0
   -7.9812   -0.8995   27.2196 C   0  0  0  0  0  0  0  0  0  0  0  0
   -9.1144   -1.0000   26.9067 C   0  0  0  0  0  0  0  0  0  0  0  0
   -9.8845    0.0967   26.2386 C   0  0  1  0  0  0  0  0  0  0  0  0
   -8.2145    1.1378   24.7287 C   0  0  0  0  0  0  0  0  0  0  0  0
  -11.1417    0.2056   25.6987 C   0  0  0  0  0  0  0  0  0  0  0  0
   -9.8999    0.9431   26.8235 Cl  0  0  0  0  0  0  0  0  0  0  0  0
  4 11  1  0
 11 12  1  0
 12 13  2  3
 13 14  1  0
  5 15  1  0
 14 16  1  1
 14 17  1  0
  1  2  2  0
  2  8  1  0
  8  9  2  0
  9 10  1  0
 10  7  2  0
  1  3  1  0
  3  4  2  0
  4  5  1  0
  5  6  2  0
  6  7  1  0
  7  1  1  0
M  END
$$$$
