No_6371-complexes_sdf/6BKW-FPZ/2024-09-17-14-21-01/
     RDKit          3D

 32 37  0  0  0  0  0  0  0  0999 V2000
   -7.9040    3.9820   27.1177 C   0  0  0  0  0  0  0  0  0  0  0  0
   -9.0711    4.3164   27.0630 C   0  0  0  0  0  0  0  0  0  0  0  0
  -10.0395    3.8218   27.1938 C   0  0  0  0  0  0  0  0  0  0  0  0
   -7.6424    2.5858   27.3610 C   0  0  0  0  0  0  0  0  0  0  0  0
   -8.7646    1.7754   27.4263 C   0  0  0  0  0  0  0  0  0  0  0  0
   -9.9966    2.3406   27.3957 C   0  0  0  0  0  0  0  0  0  0  0  0
   -6.0600    1.9631   27.3980 Cl  0  0  0  0  0  0  0  0  0  0  0  0
   -9.1452    6.2041   26.8785 Cl  0  0  0  0  0  0  0  0  0  0  0  0
  -11.2064    1.5012   27.6821 C   0  0  0  0  0  0  0  0  0  0  0  0
  -11.0225    0.2291   27.8297 C   0  0  0  0  0  0  0  0  0  0  0  0
  -12.4455    2.1472   27.8621 C   0  0  0  0  0  0  0  0  0  0  0  0
  -13.3970    1.4699   28.1847 C   0  0  0  0  0  0  0  0  0  0  0  0
  -12.1445   -0.5931   28.2002 C   0  0  0  0  0  0  0  0  0  0  0  0
  -13.3408    0.0704   28.3855 C   0  0  0  0  0  0  0  0  0  0  0  0
  -14.8522   -1.0302   28.8107 Br  0  0  0  0  0  0  0  0  0  0  0  0
  -14.8304    2.0740   28.4661 C   0  0  0  0  0  0  0  0  0  0  0  0
  -14.9765    3.1984   27.8011 C   0  0  0  0  0  0  0  0  0  0  0  0
  -15.9326    4.1202   28.1108 C   0  0  0  0  0  0  0  0  0  0  0  0
  -16.4817    4.1033   29.3289 C   0  0  0  0  0  0  0  0  0  0  0  0
  -16.2657    2.9352   30.1340 C   0  0  0  0  0  0  0  0  0  0  0  0
  -15.3685    2.0292   29.8417 C   0  0  0  0  0  0  0  0  0  0  0  0
  -16.1682    5.3394   27.2595 C   0  0  0  0  0  0  0  0  0  0  0  0
  -15.6044    5.3938   26.0955 C   0  0  0  0  0  0  0  0  0  0  0  0
  -15.8488    6.4548   25.1702 C   0  0  0  0  0  0  0  0  0  0  0  0
  -16.5751    7.6470   25.6288 C   0  0  0  0  0  0  0  0  0  0  0  0
  -16.8950    6.4897   27.7047 C   0  0  0  0  0  0  0  0  0  0  0  0
  -17.0622    7.6081   26.9098 C   0  0  0  0  0  0  0  0  0  0  0  0
  -15.2222    6.5321   23.8236 C   0  0  0  0  0  0  0  0  0  0  0  0
  -14.2324    5.6087   23.5772 C   0  0  0  0  0  0  0  0  0  0  0  0
  -13.9393    4.5941   24.5790 C   0  0  0  0  0  0  0  0  0  0  0  0
  -14.5706    4.4874   25.6604 C   0  0  0  0  0  0  0  0  0  0  0  0
  -14.3539    3.3293   26.4724 C   0  0  0  0  0  0  0  0  0  0  0  0
  4  7  1  0
  2  8  1  0
  6  9  1  0
 14 15  1  0
 12 16  1  0
 18 22  1  0
 17 32  1  0
 31 32  1  0
 24 28  1  0
 28 29  2  0
 29 30  1  0
 30 31  2  0
 31 23  1  0
  1  2  2  0
  2  3  1  0
  3  6  2  0
  6  5  1  0
  5  4  2  0
  4  1  1  0
 22 23  2  0
 23 24  1  0
 24 25  2  0
 25 27  1  0
 27 26  2  0
 26 22  1  0
  9 10  2  0
 10 13  1  0
 13 14  2  0
 14 12  1  0
 12 11  2  0
 11  9  1  0
 16 17  2  0
 17 18  1  0
 18 19  2  0
 19 20  1  0
 20 21  2  0
 21 16  1  0
M  END
$$$$
