No_6204-complexes_sdf/6BKW-FPZ/2024-09-17-14-21-01/
     RDKit          3D

 24 26  0  0  0  0  0  0  0  0999 V2000
   -7.2496    3.8871   27.4508 C   0  0  0  0  0  0  0  0  0  0  0  0
   -7.6161    2.7143   27.1523 C   0  0  0  0  0  0  0  0  0  0  0  0
   -8.8827    2.2318   27.1220 C   0  0  0  0  0  0  0  0  0  0  0  0
   -8.2837    4.9116   27.6108 C   0  0  0  0  0  0  0  0  0  0  0  0
   -9.6088    4.5175   27.5560 C   0  0  0  0  0  0  0  0  0  0  0  0
   -9.9243    3.2149   27.3938 C   0  0  0  0  0  0  0  0  0  0  0  0
   -7.6461    6.4953   27.7496 Cl  0  0  0  0  0  0  0  0  0  0  0  0
   -9.2812    0.8496   26.9724 C   0  0  0  0  0  0  0  0  0  0  0  0
  -10.3523    0.3951   27.5280 C   0  0  0  0  0  0  0  0  0  0  0  0
  -11.3778    1.3608   28.0143 C   0  0  0  0  0  0  0  0  0  0  0  0
  -11.1756    2.6940   27.8899 C   0  0  0  0  0  0  0  0  0  0  0  0
  -12.1810    3.5992   28.4422 C   0  0  0  0  0  0  0  0  0  0  0  0
  -12.4601    4.7153   27.8215 C   0  0  0  0  0  0  0  0  0  0  0  0
  -12.8931    3.2233   29.6558 C   0  0  0  0  0  0  0  0  0  0  0  0
  -14.0861    3.7807   30.0618 C   0  0  0  0  0  0  0  0  0  0  0  0
  -13.7418    5.4448   28.2407 C   0  0  0  0  0  0  0  0  0  0  0  0
  -14.3864    5.0270   29.3637 C   0  0  0  0  0  0  0  0  0  0  0  0
  -14.7797    3.4279   31.2667 C   0  0  2  0  0  0  0  0  0  0  0  0
  -14.2583    2.7482   32.4908 Cl  0  0  0  0  0  0  0  0  0  0  0  0
  -16.2323    3.7177   31.2413 C   0  0  0  0  0  0  0  0  0  0  0  0
  -16.9364    2.9465   31.4227 C   0  0  0  0  0  0  0  0  0  0  0  0
  -17.8586    2.5553   31.4790 C   0  0  0  0  0  0  0  0  0  0  0  0
  -18.9744    3.4042   31.2219 C   0  0  0  0  0  0  0  0  0  0  0  0
  -18.5101    4.7329   30.9645 C   0  0  0  0  0  0  0  0  0  0  0  0
  4  7  1  0
 11 12  1  0
 15 18  1  0
 18 19  1  6
 18 20  1  0
 20 21  2  3
 21 22  1  0
 22 23  2  3
 23 24  1  0
  1  2  2  0
  2  3  1  0
  6  5  1  0
  5  4  2  0
  4  1  1  0
  3  6  2  0
  6 11  1  0
 11 10  2  0
 10  9  1  0
  9  8  2  0
  8  3  1  0
 12 13  2  0
 13 16  1  0
 16 17  2  0
 17 15  1  0
 15 14  2  0
 14 12  1  0
M  END
$$$$
