No_6683-complexes_sdf/6BKW-FPZ/2024-09-17-14-21-01/
     RDKit          3D

 18 19  0  0  0  0  0  0  0  0999 V2000
   -7.2496    3.8871   27.4508 C   0  0  0  0  0  0  0  0  0  0  0  0
   -8.5096    4.0291   27.2770 C   0  0  0  0  0  0  0  0  0  0  0  0
   -9.2669    5.1645   27.5845 C   0  0  1  0  0  0  0  0  0  0  0  0
   -8.4566    6.3212   27.8001 C   0  0  0  0  0  0  0  0  0  0  0  0
   -6.6044    2.5801   27.2072 C   0  0  0  0  0  0  0  0  0  0  0  0
   -7.3819    1.4822   27.0097 C   0  0  0  0  0  0  0  0  0  0  0  0
   -8.7419    1.6392   26.7945 C   0  0  0  0  0  0  0  0  0  0  0  0
   -9.3915    2.8607   27.0849 C   0  0  0  0  0  0  0  0  0  0  0  0
  -10.3236    5.4167   26.5402 C   0  0  0  0  0  0  0  0  0  0  0  0
   -6.7441    0.2138   26.7729 C   0  0  0  0  0  0  0  0  0  0  0  0
   -7.0447   -0.5718   27.4700 O   0  0  0  0  0  0  0  0  0  0  0  0
   -5.7658    0.1168   25.9591 O   0  0  0  0  0  0  0  0  0  0  0  0
  -10.0606    4.8328   28.9236 C   0  0  0  0  0  0  0  0  0  0  0  0
   -8.6112    7.4955   26.8918 C   0  0  0  0  0  0  0  0  0  0  0  0
  -11.1826    4.3698   26.3878 C   0  0  0  0  0  0  0  0  0  0  0  0
  -10.5270    3.0164   26.1317 C   0  0  1  0  0  0  0  0  0  0  0  0
  -10.7622    2.3094   25.0450 C   0  0  0  0  0  0  0  0  0  0  0  0
  -11.7106    1.3497   25.0739 C   0  0  0  0  0  0  0  0  0  0  0  0
  2  3  1  0
  3  4  1  0
  3  9  1  0
  6 10  1  0
 10 11  2  0
 10 12  1  0
  3 13  1  1
  4 14  1  0
  8 16  1  0
 15 16  1  0
 16 17  1  6
 17 18  2  0
 15  9  1  0
  1  2  2  0
  2  8  1  0
  8  7  2  0
  7  6  1  0
  6  5  2  0
  5  1  1  0
M  END
$$$$
