No_697-complexes_sdf/6BKW-FPZ/2024-09-17-14-21-01/
     RDKit          3D

 18 20  0  0  0  0  0  0  0  0999 V2000
   -7.9040    3.9820   27.1177 C   0  0  0  0  0  0  0  0  0  0  0  0
   -7.8663    4.8694   27.9238 C   0  0  0  0  0  0  0  0  0  0  0  0
   -9.0501    3.8017   26.2617 C   0  0  0  0  0  0  0  0  0  0  0  0
   -9.1826    2.7026   25.3575 C   0  0  0  0  0  0  0  0  0  0  0  0
   -8.6940    6.0131   27.8614 C   0  0  0  0  0  0  0  0  0  0  0  0
  -10.1138    4.6733   26.4644 C   0  0  0  0  0  0  0  0  0  0  0  0
   -9.8579    5.8496   27.1764 C   0  0  0  0  0  0  0  0  0  0  0  0
   -8.6820    1.4638   25.6980 C   0  0  0  0  0  0  0  0  0  0  0  0
   -8.7841    0.4059   24.8093 C   0  0  0  0  0  0  0  0  0  0  0  0
   -9.3903    0.6477   23.5551 C   0  0  0  0  0  0  0  0  0  0  0  0
   -9.7627    2.8505   24.1144 C   0  0  0  0  0  0  0  0  0  0  0  0
   -9.8559    1.8688   23.2303 C   0  0  0  0  0  0  0  0  0  0  0  0
  -10.4714    2.0684   21.8916 C   0  0  0  0  0  0  0  0  0  0  0  0
  -10.9456    1.1108   21.1576 C   0  0  0  0  0  0  0  0  0  0  0  0
  -10.4222    3.4336   21.3510 C   0  0  0  0  0  0  0  0  0  0  0  0
  -10.1897    4.5377   22.1726 C   0  0  0  0  0  0  0  0  0  0  0  0
   -9.9272    4.2810   23.6357 C   0  0  0  0  0  0  0  0  0  0  0  0
  -11.9865    1.3050   20.3022 C   0  0  0  0  0  0  0  0  0  0  0  0
  3  4  1  0
 12 13  1  0
 13 14  2  3
 13 15  1  0
 15 16  1  0
 11 17  1  0
 16 17  1  0
 14 18  1  0
  4  8  2  0
  8  9  1  0
  9 10  2  0
 10 12  1  0
 12 11  2  0
 11  4  1  0
  1  2  2  0
  2  5  1  0
  5  7  2  0
  7  6  1  0
  6  3  2  0
  3  1  1  0
M  END
$$$$
