No_6592-complexes_sdf/6BKW-FPZ/2024-09-17-14-21-01/
     RDKit          3D

 23 25  0  0  0  0  0  0  0  0999 V2000
   -7.2496    3.8871   27.4508 C   0  0  0  0  0  0  0  0  0  0  0  0
   -7.6161    2.7143   27.1523 C   0  0  0  0  0  0  0  0  0  0  0  0
   -7.1619    1.8631   27.5232 C   0  0  0  0  0  0  0  0  0  0  0  0
   -8.0384    5.0866   27.3232 C   0  0  0  0  0  0  0  0  0  0  0  0
   -7.6402    6.3228   27.8917 C   0  0  0  0  0  0  0  0  0  0  0  0
   -7.4924    0.4564   27.3026 C   0  0  0  0  0  0  0  0  0  0  0  0
   -9.1699    5.0785   26.4353 C   0  0  0  0  0  0  0  0  0  0  0  0
   -6.7414   -0.6403   27.6995 C   0  0  0  0  0  0  0  0  0  0  0  0
   -9.0137    3.0014   26.6312 C   0  0  0  0  0  0  0  0  0  0  0  0
   -9.6678    3.9500   26.1810 C   0  0  0  0  0  0  0  0  0  0  0  0
   -5.4787   -0.3488   28.2598 C   0  0  0  0  0  0  0  0  0  0  0  0
   -4.9774    0.9300   28.3547 C   0  0  0  0  0  0  0  0  0  0  0  0
   -5.6867    1.9469   28.0269 C   0  0  0  0  0  0  0  0  0  0  0  0
   -4.6731   -1.5355   28.7397 C   0  0  0  0  0  0  0  0  0  0  0  0
   -4.4385   -2.4552   28.1945 C   0  0  0  0  0  0  0  0  0  0  0  0
   -4.9354   -2.6056   26.7828 C   0  0  0  0  0  0  0  0  0  0  0  0
   -4.7483   -3.0876   25.8771 C   0  0  0  0  0  0  0  0  0  0  0  0
   -5.5071   -3.0774   24.6154 C   0  0  0  0  0  0  0  0  0  0  0  0
   -6.5048   -2.1294   24.5564 C   0  0  0  0  0  0  0  0  0  0  0  0
   -7.1937   -2.0448   23.3207 C   0  0  0  0  0  0  0  0  0  0  0  0
   -6.8416   -2.8055   22.2421 C   0  0  0  0  0  0  0  0  0  0  0  0
   -5.8072   -3.6880   22.2830 C   0  0  0  0  0  0  0  0  0  0  0  0
   -5.0929   -3.7695   23.4419 C   0  0  0  0  0  0  0  0  0  0  0  0
  2  3  1  0
  4  5  1  0
 11 14  1  0
 14 15  2  3
 15 16  1  0
 16 17  3  0
 17 18  1  0
 18 19  2  0
 19 20  1  0
 20 21  2  0
 21 22  1  0
 22 23  2  0
 23 18  1  0
  1  2  2  0
  2  9  1  0
  9 10  2  0
 10  7  1  0
  7  4  2  0
  4  1  1  0
  3  6  2  0
  6  8  1  0
  8 11  2  0
 11 12  1  0
 12 13  2  0
 13  3  1  0
M  END
$$$$
