No_6682-complexes_sdf/6BKW-FPZ/2024-09-17-14-21-01/
     RDKit          3D

 29 32  0  0  0  0  0  0  0  0999 V2000
   -7.2496    3.8871   27.4508 C   0  0  0  0  0  0  0  0  0  0  0  0
   -7.9379    4.9063   27.8518 C   0  0  0  0  0  0  0  0  0  0  0  0
   -7.5112    6.1898   27.6280 C   0  0  0  0  0  0  0  0  0  0  0  0
   -9.4044    4.7330   27.8015 C   0  0  0  0  0  0  0  0  0  0  0  0
   -7.8289    2.5799   27.2061 C   0  0  0  0  0  0  0  0  0  0  0  0
  -10.0083    3.4900   27.8070 C   0  0  0  0  0  0  0  0  0  0  0  0
   -9.1724    2.4034   27.5228 C   0  0  0  0  0  0  0  0  0  0  0  0
  -11.4102    3.2495   28.0864 C   0  0  0  0  0  0  0  0  0  0  0  0
  -11.8142    2.1584   28.7644 C   0  0  0  0  0  0  0  0  0  0  0  0
  -13.1735    1.9279   29.1268 C   0  0  0  0  0  0  0  0  0  0  0  0
  -14.0639    2.9952   28.9174 C   0  0  0  0  0  0  0  0  0  0  0  0
  -12.3667    4.3243   27.9876 C   0  0  0  0  0  0  0  0  0  0  0  0
  -13.6342    4.2053   28.3523 C   0  0  0  0  0  0  0  0  0  0  0  0
   -6.9920    1.3903   27.0002 C   0  0  0  0  0  0  0  0  0  0  0  0
   -7.0012    0.3889   27.8483 C   0  0  0  0  0  0  0  0  0  0  0  0
   -5.9973   -0.6046   27.8476 C   0  0  0  0  0  0  0  0  0  0  0  0
   -4.9567   -0.4049   27.0502 C   0  0  0  0  0  0  0  0  0  0  0  0
   -4.8806    0.6263   26.1953 C   0  0  0  0  0  0  0  0  0  0  0  0
   -5.7930    1.5442   26.2101 C   0  0  0  0  0  0  0  0  0  0  0  0
   -6.1441   -1.7336   28.8317 C   0  0  2  0  0  0  0  0  0  0  0  0
   -5.2998   -1.7373   29.8707 C   0  0  0  0  0  0  0  0  0  0  0  0
   -5.6537   -2.3167   31.0803 C   0  0  0  0  0  0  0  0  0  0  0  0
   -4.8697   -2.1745   32.2718 C   0  0  0  0  0  0  0  0  0  0  0  0
   -4.2066   -1.3306   32.4269 C   0  0  0  0  0  0  0  0  0  0  0  0
   -3.7136   -0.4375   31.3210 C   0  0  0  0  0  0  0  0  0  0  0  0
   -4.7254   -0.3805   30.2972 C   0  0  0  0  0  0  0  0  0  0  0  0
   -6.9751   -2.7379   28.4224 C   0  0  0  0  0  0  0  0  0  0  0  0
   -8.2201   -2.7916   28.9509 C   0  0  0  0  0  0  0  0  0  0  0  0
   -9.2004   -3.7812   28.6826 C   0  0  0  0  0  0  0  0  0  0  0  0
  2  3  1  0
  6  8  1  0
  5 14  1  0
 20 16  1  6
 20 21  1  0
 20 27  1  0
 27 28  2  3
 28 29  1  0
 14 15  2  0
 15 16  1  0
 16 17  2  0
 17 18  1  0
 18 19  2  0
 19 14  1  0
 21 22  2  0
 22 23  1  0
 23 24  2  0
 24 25  1  0
 25 26  2  0
 26 21  1  0
  1  2  2  0
  2  4  1  0
  4  6  2  0
  6  7  1  0
  7  5  2  0
  5  1  1  0
  8  9  2  0
  9 10  1  0
 10 11  2  0
 11 13  1  0
 13 12  2  0
 12  8  1  0
M  END
$$$$
