No_6059-complexes_sdf/6BKW-FPZ/2024-09-17-14-21-01/
     RDKit          3D

 36 39  0  0  0  0  0  0  0  0999 V2000
   -7.7129    4.2099   27.0854 C   0  0  0  0  0  0  0  0  0  0  0  0
   -8.9133    4.4736   27.0998 C   0  0  0  0  0  0  0  0  0  0  0  0
   -9.4643    5.5426   27.7628 C   0  0  0  0  0  0  0  0  0  0  0  0
   -7.2009    2.9448   26.6134 C   0  0  0  0  0  0  0  0  0  0  0  0
   -8.1365    1.9533   26.2981 C   0  0  0  0  0  0  0  0  0  0  0  0
   -9.4514    2.2934   26.2667 C   0  0  0  0  0  0  0  0  0  0  0  0
   -9.8600    3.4834   26.7068 C   0  0  0  0  0  0  0  0  0  0  0  0
   -7.6136    0.6633   25.8927 C   0  0  0  0  0  0  0  0  0  0  0  0
   -6.7666   -0.2395   27.0172 P   0  0  1  0  0  0  0  0  0  0  0  0
   -5.5440   -0.0530   26.8209 O   0  0  0  0  0  0  0  0  0  0  0  0
   -7.1461    0.3848   28.4053 O   0  0  0  0  0  0  0  0  0  0  0  0
   -7.2766   -1.6392   26.9694 O   0  0  0  0  0  0  0  0  0  0  0  0
   -6.6641   -2.6072   27.0686 C   0  0  0  0  0  0  0  0  0  0  0  0
   -6.0599   -2.9050   28.2437 C   0  0  0  0  0  0  0  0  0  0  0  0
   -6.7392   -2.5295   29.3996 C   0  0  1  0  0  0  0  0  0  0  0  0
   -7.8747   -3.1043   29.8055 C   0  0  0  0  0  0  0  0  0  0  0  0
   -8.9936   -2.8879   29.2705 C   0  0  0  0  0  0  0  0  0  0  0  0
  -10.3045   -3.3802   29.7437 C   0  0  0  0  0  0  0  0  0  0  0  0
  -10.2581   -3.9743   31.0044 C   0  0  0  0  0  0  0  0  0  0  0  0
   -9.0947   -4.1124   31.6964 C   0  0  1  0  0  0  0  0  0  0  0  0
   -7.9298   -3.6304   31.2113 C   0  0  1  0  0  0  0  0  0  0  0  0
   -6.7082   -3.7605   31.9958 C   0  0  0  0  0  0  0  0  0  0  0  0
   -7.6361   -2.7172   31.6112 C   0  0  0  0  0  0  0  0  0  0  0  0
   -9.2154   -4.7284   33.0179 C   0  0  0  0  0  0  0  0  0  0  0  0
   -9.1341   -5.1540   31.6475 F   0  0  0  0  0  0  0  0  0  0  0  0
   -9.6157   -5.9508   33.4772 O   0  0  0  0  0  0  0  0  0  0  0  0
   -6.3554   -2.0425   31.5051 C   0  0  1  0  0  0  0  0  0  0  0  0
   -5.6836   -4.0790   32.4047 C   0  0  0  0  0  0  0  0  0  0  0  0
   -6.6065   -5.1570   32.5856 Cl  0  0  0  0  0  0  0  0  0  0  0  0
   -5.9497   -3.1808   31.6873 C   0  0  2  0  0  0  0  0  0  0  0  0
   -5.8677   -1.7381   30.2455 C   0  0  0  0  0  0  0  0  0  0  0  0
   -4.7886   -3.5518   30.9145 C   0  0  0  0  0  0  0  0  0  0  0  0
   -3.7634   -4.6086   31.2699 C   0  0  0  0  0  0  0  0  0  0  0  0
   -2.7120   -4.7638   30.2667 C   0  0  0  0  0  0  0  0  0  0  0  0
   -2.6217   -3.9167   29.2016 C   0  0  0  0  0  0  0  0  0  0  0  0
   -4.1893   -3.0048   29.8163 C   0  0  0  0  0  0  0  0  0  0  0  0
  5  8  1  0
  8  9  1  0
  9 10  2  0
  9 11  1  1
  9 12  1  0
 12 13  1  0
 13 14  1  0
 15 14  1  1
 15 16  1  0
 16 17  2  3
 17 18  1  0
 18 19  2  3
 19 20  1  0
 16 21  1  0
 21 22  1  0
 21 23  1  1
 20 24  1  0
 20 25  1  6
 24 26  1  0
 23 27  1  0
 22 28  2  3
 28 29  1  0
 22 30  1  0
 27 30  1  0
 15 31  1  0
 27 31  1  6
 30 32  1  6
 32 33  1  0
 33 34  2  0
 34 35  1  0
 32 36  1  0
 35 36  2  0
  3  2  1  0
  1  2  2  0
  2  7  1  0
  7  6  2  0
  6  5  1  0
  5  4  2  0
  4  1  1  0
M  END
$$$$
