No_6603-complexes_sdf/6BKW-FPZ/2024-09-17-14-21-01/
     RDKit          3D

 21 23  0  0  0  0  0  0  0  0999 V2000
   -7.2496    3.8871   27.4508 C   0  0  0  0  0  0  0  0  0  0  0  0
   -8.5096    4.0291   27.2770 C   0  0  0  0  0  0  0  0  0  0  0  0
   -9.3502    2.8685   26.8763 C   0  0  0  0  0  0  0  0  0  0  0  0
   -6.6288    2.5513   27.4938 C   0  0  0  0  0  0  0  0  0  0  0  0
   -7.4365    1.4714   27.2032 C   0  0  0  0  0  0  0  0  0  0  0  0
  -10.6956    3.0464   26.6122 C   0  0  1  0  0  0  0  0  0  0  0  0
   -8.7780    1.6365   26.9046 C   0  0  0  0  0  0  0  0  0  0  0  0
  -11.5430    2.8108   27.4182 C   0  0  0  0  0  0  0  0  0  0  0  0
  -11.2845    2.3363   28.7149 C   0  0  0  0  0  0  0  0  0  0  0  0
  -12.2978    2.0500   29.7242 C   0  0  0  0  0  0  0  0  0  0  0  0
  -13.6802    2.3308   29.3051 C   0  0  0  0  0  0  0  0  0  0  0  0
  -13.9615    2.7867   28.0649 C   0  0  0  0  0  0  0  0  0  0  0  0
  -12.9557    3.0568   27.1901 C   0  0  0  0  0  0  0  0  0  0  0  0
  -10.7791    4.5074   26.0809 C   0  0  0  0  0  0  0  0  0  0  0  0
   -4.9777    2.3892   27.8548 Cl  0  0  0  0  0  0  0  0  0  0  0  0
  -11.0178    2.1154   25.3343 C   0  0  0  0  0  0  0  0  0  0  0  0
  -11.2690    2.4800   24.2860 C   0  0  0  0  0  0  0  0  0  0  0  0
  -11.6027    1.5857   23.2623 C   0  0  0  0  0  0  0  0  0  0  0  0
  -11.5369    0.2700   23.5662 C   0  0  0  0  0  0  0  0  0  0  0  0
  -11.1976    0.6564   25.3909 C   0  0  0  0  0  0  0  0  0  0  0  0
  -11.4290   -0.1901   24.5302 O   0  0  0  0  0  0  0  0  0  0  0  0
  3  6  1  0
  6  8  1  0
  6 14  1  6
  4 15  1  0
  6 16  1  0
 16 17  2  0
 17 18  1  0
 18 19  2  0
 16 20  1  0
 19 20  1  0
 19 21  1  0
  1  2  2  0
  2  3  1  0
  3  7  2  0
  7  5  1  0
  5  4  2  0
  4  1  1  0
  8  9  2  0
  9 10  1  0
 10 11  2  0
 11 12  1  0
 12 13  2  0
 13  8  1  0
M  END
$$$$
