No_6701-complexes_sdf/6BKW-FPZ/2024-09-17-14-21-01/
     RDKit          3D

 13 14  0  0  0  0  0  0  0  0999 V2000
   -7.7129    4.2099   27.0854 C   0  0  0  0  0  0  0  0  0  0  0  0
   -7.7814    5.1722   27.8972 C   0  0  0  0  0  0  0  0  0  0  0  0
   -8.8776    3.8408   26.3416 C   0  0  0  0  0  0  0  0  0  0  0  0
   -9.9844    4.6492   26.4743 C   0  0  0  0  0  0  0  0  0  0  0  0
   -8.8033    6.1375   27.8728 C   0  0  0  0  0  0  0  0  0  0  0  0
   -9.9554    5.8280   27.1736 C   0  0  0  0  0  0  0  0  0  0  0  0
   -8.6804    2.5787   25.5887 C   0  0  0  0  0  0  0  0  0  0  0  0
   -8.3628    1.4359   26.3274 C   0  0  0  0  0  0  0  0  0  0  0  0
   -7.9890    0.2945   25.6814 C   0  0  0  0  0  0  0  0  0  0  0  0
   -7.4492   -0.7581   26.4148 C   0  0  0  0  0  0  0  0  0  0  0  0
   -7.3043   -0.6155   27.8317 C   0  0  0  0  0  0  0  0  0  0  0  0
   -7.6857    0.5631   28.4203 C   0  0  0  0  0  0  0  0  0  0  0  0
   -8.1077    1.5931   27.7535 C   0  0  0  0  0  0  0  0  0  0  0  0
  3  7  1  0
  7  8  1  0
  8  9  2  0
  9 10  1  0
 10 11  2  0
 11 12  1  0
 12 13  2  0
 13  8  1  0
  1  2  2  0
  2  5  1  0
  5  6  2  0
  6  4  1  0
  4  3  2  0
  3  1  1  0
M  END
$$$$
