No_6622-complexes_sdf/6BKW-FPZ/2024-09-17-14-21-01/
     RDKit          3D

 39 44  0  0  0  0  0  0  0  0999 V2000
   -7.9040    3.9820   27.1177 C   0  0  0  0  0  0  0  0  0  0  0  0
   -9.0711    4.3164   27.0630 C   0  0  0  0  0  0  0  0  0  0  0  0
   -9.9692    3.7224   26.1073 C   0  0  0  0  0  0  0  0  0  0  0  0
   -6.9787    4.6761   28.1003 C   0  0  0  0  0  0  0  0  0  0  0  0
   -9.4538    2.6801   25.3673 C   0  0  0  0  0  0  0  0  0  0  0  0
   -8.1927    2.1957   25.6621 C   0  0  0  0  0  0  0  0  0  0  0  0
   -7.4333    2.8255   26.6299 C   0  0  0  0  0  0  0  0  0  0  0  0
  -10.3181    2.0008   24.3846 C   0  0  0  0  0  0  0  0  0  0  0  0
  -10.7358    2.6411   23.3159 C   0  0  0  0  0  0  0  0  0  0  0  0
  -11.1298    2.5760   22.3845 C   0  0  0  0  0  0  0  0  0  0  0  0
  -11.5444    3.5394   21.2859 C   0  0  0  0  0  0  0  0  0  0  0  0
  -11.4266    4.8734   21.6968 C   0  0  0  0  0  0  0  0  0  0  0  0
  -10.9165    5.1680   22.9200 C   0  0  0  0  0  0  0  0  0  0  0  0
  -10.4870    4.2420   23.7841 C   0  0  0  0  0  0  0  0  0  0  0  0
  -10.1149    4.5582   25.0626 N   0  0  0  0  0  0  0  0  0  0  0  0
   -7.5033    5.7694   28.7192 N   0  0  0  0  0  0  0  0  0  0  0  0
   -5.8009    4.3465   28.2729 O   0  0  0  0  0  0  0  0  0  0  0  0
  -10.3996    0.5548   24.3823 C   0  0  0  0  0  0  0  0  0  0  0  0
  -11.6179    0.0406   24.5870 C   0  0  0  0  0  0  0  0  0  0  0  0
  -11.7955   -1.3711   24.5616 C   0  0  0  0  0  0  0  0  0  0  0  0
  -13.0840   -1.8821   24.6787 C   0  0  0  0  0  0  0  0  0  0  0  0
  -14.1773   -1.0406   24.7596 C   0  0  0  0  0  0  0  0  0  0  0  0
  -14.0339    0.3272   24.7424 C   0  0  0  0  0  0  0  0  0  0  0  0
  -12.7769    0.9032   24.6567 C   0  0  0  0  0  0  0  0  0  0  0  0
   -9.2666   -0.2865   24.1580 C   0  0  0  0  0  0  0  0  0  0  0  0
   -8.5480   -0.8907   25.2003 C   0  0  0  0  0  0  0  0  0  0  0  0
   -7.4517   -1.7259   24.9480 C   0  0  0  0  0  0  0  0  0  0  0  0
   -7.0237   -1.8959   23.6204 C   0  0  0  0  0  0  0  0  0  0  0  0
   -8.7893   -0.4959   22.8645 C   0  0  0  0  0  0  0  0  0  0  0  0
   -7.7005   -1.2726   22.5965 C   0  0  0  0  0  0  0  0  0  0  0  0
  -15.5359   -1.6571   24.8869 C   0  0  0  0  0  0  0  0  0  0  0  0
  -16.3775   -1.1827   25.6423 N   0  0  0  0  0  0  0  0  0  0  0  0
  -16.1823   -2.5019   23.5478 Cl  0  0  0  0  0  0  0  0  0  0  0  0
  -17.6099   -1.6984   25.8721 C   0  0  0  0  0  0  0  0  0  0  0  0
  -17.7627   -2.6191   26.8862 C   0  0  0  0  0  0  0  0  0  0  0  0
  -18.9238   -3.2753   27.1157 C   0  0  0  0  0  0  0  0  0  0  0  0
  -20.0522   -2.8767   26.3349 C   0  0  0  0  0  0  0  0  0  0  0  0
  -19.9269   -1.9319   25.3679 C   0  0  0  0  0  0  0  0  0  0  0  0
  -18.6796   -1.2842   25.1232 C   0  0  0  0  0  0  0  0  0  0  0  0
  1  4  1  0
  4 16  2  0
  4 17  1  0
  8 18  1  0
 18 25  1  0
 22 31  1  0
 31 32  2  3
 31 33  1  0
 32 34  1  0
 18 19  1  0
 25 26  2  0
 26 27  1  0
 27 28  2  0
 28 30  1  0
 30 29  2  0
 29 25  1  0
  1  2  2  0
  2  3  1  0
  5  6  1  0
  6  7  2  0
  7  1  1  0
  9 10  1  0
 10 11  2  0
 11 12  1  0
 12 13  2  0
 13 14  1  0
 19 20  2  0
 20 21  1  0
 21 22  2  0
 22 23  1  0
 23 24  2  0
 24 19  1  0
  3  5  2  0
  5  8  1  0
  8  9  2  0
  9 14  1  0
 14 15  2  0
 15  3  1  0
 34 35  2  0
 35 36  1  0
 36 37  2  0
 37 38  1  0
 38 39  2  0
 39 34  1  0
M  END
$$$$
