No_6513-complexes_sdf/6BKW-FPZ/2024-09-17-14-21-01/
     RDKit          3D

 40 45  0  0  0  0  0  0  0  0999 V2000
   -7.7129    4.2099   27.0854 C   0  0  0  0  0  0  0  0  0  0  0  0
   -7.7814    5.1722   27.8972 C   0  0  0  0  0  0  0  0  0  0  0  0
   -7.3155    2.9699   27.6145 C   0  0  0  0  0  0  0  0  0  0  0  0
   -7.6814    1.8188   26.9581 C   0  0  0  0  0  0  0  0  0  0  0  0
   -8.6377    1.9131   25.9324 C   0  0  0  0  0  0  0  0  0  0  0  0
   -9.1866    3.0673   25.6037 C   0  0  0  0  0  0  0  0  0  0  0  0
   -8.8394    4.1752   26.2513 C   0  0  0  0  0  0  0  0  0  0  0  0
   -8.2486    6.4747   27.5719 N   0  0  0  0  0  0  0  0  0  0  0  0
   -9.1525    6.6854   26.5919 C   0  0  0  0  0  0  0  0  0  0  0  0
   -9.4607    5.4864   25.8772 C   0  0  0  0  0  0  0  0  0  0  0  0
   -7.0245    0.5340   27.2725 C   0  0  0  0  0  0  0  0  0  0  0  0
   -5.7982    0.4635   27.9413 C   0  0  0  0  0  0  0  0  0  0  0  0
   -5.2680   -0.7384   28.3720 C   0  0  0  0  0  0  0  0  0  0  0  0
   -5.9985   -1.8694   28.0912 C   0  0  0  0  0  0  0  0  0  0  0  0
   -7.6078   -0.7411   27.2042 C   0  0  0  0  0  0  0  0  0  0  0  0
   -7.1872   -1.8558   27.5989 C   0  0  0  0  0  0  0  0  0  0  0  0
   -3.9085   -0.7150   29.0399 C   0  0  1  0  0  0  0  0  0  0  0  0
   -4.0012   -0.3212   30.4185 C   0  0  0  0  0  0  0  0  0  0  0  0
   -3.2231   -2.0386   28.8893 C   0  0  0  0  0  0  0  0  0  0  0  0
   -3.0298    0.3672   28.3124 C   0  0  0  0  0  0  0  0  0  0  0  0
   -4.8250   -0.3656   31.2093 C   0  0  0  0  0  0  0  0  0  0  0  0
   -4.8276   -0.5860   32.6456 C   0  0  0  0  0  0  0  0  0  0  0  0
   -3.5442   -0.6048   33.2411 C   0  0  0  0  0  0  0  0  0  0  0  0
   -3.3197   -0.8188   34.6172 C   0  0  0  0  0  0  0  0  0  0  0  0
   -2.3625   -0.3570   32.4285 C   0  0  0  0  0  0  0  0  0  0  0  0
   -2.5731   -0.3651   31.0455 N   0  0  0  0  0  0  0  0  0  0  0  0
   -2.3568   -0.4556   35.2191 O   0  0  0  0  0  0  0  0  0  0  0  0
   -4.3700   -1.3352   35.2745 O   0  0  0  0  0  0  0  0  0  0  0  0
   -3.1084   -2.6666   27.8295 C   0  0  0  0  0  0  0  0  0  0  0  0
   -2.3488   -3.8332   27.7036 C   0  0  0  0  0  0  0  0  0  0  0  0
   -1.7548   -4.3088   28.8415 C   0  0  0  0  0  0  0  0  0  0  0  0
   -1.8280   -3.6782   30.0615 C   0  0  0  0  0  0  0  0  0  0  0  0
   -2.5039   -2.5360   30.0892 C   0  0  0  0  0  0  0  0  0  0  0  0
   -4.1740   -1.8126   36.5636 C   0  0  0  0  0  0  0  0  0  0  0  0
   -5.0797   -1.3300   37.4147 C   0  0  0  0  0  0  0  0  0  0  0  0
   -5.1500   -1.7781   38.6454 C   0  0  0  0  0  0  0  0  0  0  0  0
   -4.2194   -2.7503   39.0808 C   0  0  0  0  0  0  0  0  0  0  0  0
   -3.3580   -3.2190   38.1738 C   0  0  0  0  0  0  0  0  0  0  0  0
   -3.3398   -2.7600   36.8551 C   0  0  0  0  0  0  0  0  0  0  0  0
   -3.4025    1.0882   27.5321 O   0  0  0  0  0  0  0  0  0  0  0  0
  4 11  1  0
 13 17  1  0
 17 18  1  0
 17 19  1  0
 17 20  1  6
 23 24  1  0
 24 27  2  0
 24 28  1  0
 28 34  1  0
 20 40  1  0
  1  2  2  0
  2  8  1  0
  8  9  2  0
  9 10  1  0
 10  7  2  0
 19 29  2  0
 29 30  1  0
 30 31  2  0
 31 32  1  0
 32 33  2  0
 33 19  1  0
  1  3  1  0
  3  4  2  0
  4  5  1  0
  5  6  2  0
  6  7  1  0
  7  1  1  0
 11 12  2  0
 12 13  1  0
 13 14  2  0
 14 16  1  0
 16 15  2  0
 15 11  1  0
 34 35  2  0
 35 36  1  0
 36 37  2  0
 37 38  1  0
 38 39  2  0
 39 34  1  0
 18 21  2  0
 21 22  1  0
 22 23  2  0
 23 25  1  0
 25 26  2  0
 26 18  1  0
M  END
$$$$
