No_698-complexes_sdf/6BKW-FPZ/2024-09-17-14-21-01/
     RDKit          3D

 23 23  0  0  0  0  0  0  0  0999 V2000
   -7.7129    4.2099   27.0854 C   0  0  0  0  0  0  0  0  0  0  0  0
   -8.9133    4.4736   27.0998 C   0  0  0  0  0  0  0  0  0  0  0  0
   -9.7937    3.7368   26.2091 C   0  0  0  0  0  0  0  0  0  0  0  0
   -6.8266    5.0441   28.0594 C   0  0  0  0  0  0  0  0  0  0  0  0
   -9.2322    2.6276   25.6126 C   0  0  0  0  0  0  0  0  0  0  0  0
   -7.9794    2.1924   25.9863 C   0  0  0  0  0  0  0  0  0  0  0  0
   -7.2411    2.9387   26.9009 C   0  0  0  0  0  0  0  0  0  0  0  0
  -10.1860    1.6227   24.6145 Cl  0  0  0  0  0  0  0  0  0  0  0  0
   -9.4592    5.6989   27.4129 F   0  0  0  0  0  0  0  0  0  0  0  0
   -5.9789    2.6716   27.4119 N   0  0  0  0  0  0  0  0  0  0  0  0
   -5.6605    1.3910   27.6744 N   0  0  0  0  0  0  0  0  0  0  0  0
   -4.4374    1.2326   28.3508 C   0  0  0  0  0  0  0  0  0  0  0  0
   -3.7339    0.1107   27.9868 C   0  0  0  0  0  0  0  0  0  0  0  0
   -4.0930   -1.0114   28.2472 C   0  0  0  0  0  0  0  0  0  0  0  0
   -5.3311   -1.1684   28.9813 C   0  0  0  0  0  0  0  0  0  0  0  0
   -5.5744   -2.2634   29.7185 C   0  0  0  0  0  0  0  0  0  0  0  0
   -6.8688   -2.3860   30.3876 C   0  0  0  0  0  0  0  0  0  0  0  0
   -7.0604   -3.0607   31.5114 C   0  0  0  0  0  0  0  0  0  0  0  0
   -8.2938   -2.9966   32.2626 C   0  0  0  0  0  0  0  0  0  0  0  0
   -9.4307   -2.5623   31.5596 C   0  0  0  0  0  0  0  0  0  0  0  0
   -9.3028   -2.1481   30.2161 C   0  0  0  0  0  0  0  0  0  0  0  0
   -8.0534   -1.9682   29.6889 C   0  0  0  0  0  0  0  0  0  0  0  0
   -8.1131   -1.3926   28.3534 C   0  0  0  0  0  0  0  0  0  0  0  0
  1  4  1  0
  5  8  1  0
  2  9  1  0
  7 10  1  0
 10 11  1  0
 11 12  2  3
 12 13  1  0
 13 14  2  3
 14 15  1  0
 15 16  1  0
 16 17  2  3
 17 18  1  0
 18 19  2  3
 19 20  1  0
 20 21  2  3
 21 22  1  0
 22 23  1  0
  1  2  2  0
  2  3  1  0
  3  5  2  0
  5  6  1  0
  6  7  2  0
  7  1  1  0
M  END
$$$$
