No_6471-complexes_sdf/6BKW-FPZ/2024-09-17-14-21-01/
     RDKit          3D

 31 34  0  0  0  0  0  0  0  0999 V2000
   -7.2496    3.8871   27.4508 C   0  0  0  0  0  0  0  0  0  0  0  0
   -7.6161    2.7143   27.1523 C   0  0  0  0  0  0  0  0  0  0  0  0
   -8.6211    2.2238   26.4073 C   0  0  0  0  0  0  0  0  0  0  0  0
   -8.2540    4.9237   27.1711 C   0  0  0  0  0  0  0  0  0  0  0  0
   -8.0482    6.2917   27.4895 C   0  0  0  0  0  0  0  0  0  0  0  0
   -9.5811    3.2431   26.0960 C   0  0  0  0  0  0  0  0  0  0  0  0
   -9.3651    4.5696   26.4537 C   0  0  0  0  0  0  0  0  0  0  0  0
   -8.9398    7.2469   27.1255 N   0  0  0  0  0  0  0  0  0  0  0  0
   -8.8365    0.8595   26.0845 C   0  0  0  0  0  0  0  0  0  0  0  0
   -8.5889    0.4643   24.9191 C   0  0  0  0  0  0  0  0  0  0  0  0
   -8.7185   -0.8898   24.4355 C   0  0  0  0  0  0  0  0  0  0  0  0
   -9.1071   -1.7971   25.3494 C   0  0  0  0  0  0  0  0  0  0  0  0
   -8.9236   -0.1445   27.1406 C   0  0  0  0  0  0  0  0  0  0  0  0
   -9.1929   -1.4612   26.7882 C   0  0  0  0  0  0  0  0  0  0  0  0
   -6.9351    6.6249   28.0866 O   0  0  0  0  0  0  0  0  0  0  0  0
   -9.4878   -2.4673   27.7671 C   0  0  2  0  0  0  0  0  0  0  0  0
  -10.5369   -2.2299   28.5638 C   0  0  0  0  0  0  0  0  0  0  0  0
  -11.3512   -1.2577   28.4189 C   0  0  0  0  0  0  0  0  0  0  0  0
  -12.5694   -1.2468   28.2179 C   0  0  0  0  0  0  0  0  0  0  0  0
  -13.4475   -0.0655   28.0344 C   0  0  0  0  0  0  0  0  0  0  0  0
  -12.8093    1.1744   28.0987 C   0  0  0  0  0  0  0  0  0  0  0  0
  -11.4712    1.2992   28.4439 C   0  0  0  0  0  0  0  0  0  0  0  0
  -10.7693    0.2166   28.5988 C   0  0  0  0  0  0  0  0  0  0  0  0
   -8.5905   -3.5649   27.8576 C   0  0  0  0  0  0  0  0  0  0  0  0
   -7.6204   -3.7041   27.5813 N   0  0  0  0  0  0  0  0  0  0  0  0
   -6.5746   -2.8961   28.0395 C   0  0  0  0  0  0  0  0  0  0  0  0
   -5.3049   -2.8377   27.4043 C   0  0  0  0  0  0  0  0  0  0  0  0
   -4.2624   -2.3861   28.1008 C   0  0  0  0  0  0  0  0  0  0  0  0
   -6.1786   -3.0620   29.4784 C   0  0  2  0  0  0  0  0  0  0  0  0
   -7.1628   -3.1164   30.4959 C   0  0  0  0  0  0  0  0  0  0  0  0
   -4.8199   -2.7059   29.7415 C   0  0  0  0  0  0  0  0  0  0  0  0
  4  5  1  0
  5  8  1  0
  3  9  1  0
  5 15  2  0
 14 16  1  0
 16 17  1  1
 17 18  1  0
 16 24  1  0
 24 25  1  0
 25 26  1  0
 26 27  2  0
 27 28  1  0
 26 29  1  0
 29 30  1  1
 28 31  1  0
 29 31  1  0
  1  2  2  0
  2  3  1  0
  3  6  2  0
  6  7  1  0
  7  4  2  0
  4  1  1  0
 18 19  2  0
 19 20  1  0
 20 21  2  0
 21 22  1  0
 22 23  2  0
 23 18  1  0
  9 10  2  0
 10 11  1  0
 11 12  2  0
 12 14  1  0
 14 13  2  0
 13  9  1  0
M  END
$$$$
