No_6810-complexes_sdf/6BKW-FPZ/2024-09-17-14-21-01/
     RDKit          3D

 20 22  0  0  0  0  0  0  0  0999 V2000
   -7.9040    3.9820   27.1177 C   0  0  0  0  0  0  0  0  0  0  0  0
   -7.8663    4.8694   27.9238 C   0  0  0  0  0  0  0  0  0  0  0  0
   -9.0491    3.8523   26.2542 C   0  0  0  0  0  0  0  0  0  0  0  0
   -8.7661    5.9491   27.9690 C   0  0  0  0  0  0  0  0  0  0  0  0
   -9.9279    4.8544   26.1938 C   0  0  0  0  0  0  0  0  0  0  0  0
   -9.8044    5.9413   27.0782 C   0  0  0  0  0  0  0  0  0  0  0  0
   -6.9762    2.7951   27.2180 C   0  0  0  0  0  0  0  0  0  0  0  0
   -7.2800    1.5455   27.6287 C   0  0  0  0  0  0  0  0  0  0  0  0
   -6.3530    0.5365   27.7280 C   0  0  0  0  0  0  0  0  0  0  0  0
   -4.9736    0.9890   27.7942 C   0  0  0  0  0  0  0  0  0  0  0  0
   -4.7078    2.3529   27.6682 C   0  0  0  0  0  0  0  0  0  0  0  0
   -5.6227    3.2115   27.5568 C   0  0  0  0  0  0  0  0  0  0  0  0
   -4.0648   -0.1319   28.1078 C   0  0  0  0  0  0  0  0  0  0  0  0
   -4.1664   -1.1569   28.3113 N   0  0  0  0  0  0  0  0  0  0  0  0
   -2.9660    0.4973   28.7162 F   0  0  0  0  0  0  0  0  0  0  0  0
   -5.2671   -1.8237   28.3838 C   0  0  0  0  0  0  0  0  0  0  0  0
   -6.7803   -0.8799   27.9499 C   0  0  0  0  0  0  0  0  0  0  0  0
   -7.9398   -1.4247   27.8663 C   0  0  0  0  0  0  0  0  0  0  0  0
   -7.9835   -2.4965   27.2212 F   0  0  0  0  0  0  0  0  0  0  0  0
   -8.3941   -1.5597   29.1977 F   0  0  0  0  0  0  0  0  0  0  0  0
  1  7  1  0
 13 15  1  0
 17 18  1  0
 18 19  1  0
 18 20  1  0
 10 13  2  0
 13 14  1  0
 14 16  2  0
 16 17  1  0
 17  9  2  0
  1  2  2  0
  2  4  1  0
  4  6  2  0
  6  5  1  0
  5  3  2  0
  3  1  1  0
  7  8  2  0
  8  9  1  0
  9 10  1  0
 10 11  1  0
 11 12  2  0
 12  7  1  0
M  END
$$$$
