No_6942-complexes_sdf/6BKW-FPZ/2024-09-17-14-21-01/
     RDKit          3D

 25 28  0  0  0  0  0  0  0  0999 V2000
   -7.7129    4.2099   27.0854 C   0  0  0  0  0  0  0  0  0  0  0  0
   -8.9133    4.4736   27.0998 C   0  0  0  0  0  0  0  0  0  0  0  0
   -9.8363    3.8127   27.2418 C   0  0  0  0  0  0  0  0  0  0  0  0
   -7.2995    2.8520   27.3808 C   0  0  0  0  0  0  0  0  0  0  0  0
   -8.3226    1.9328   27.4680 C   0  0  0  0  0  0  0  0  0  0  0  0
   -9.5955    2.3639   27.4416 C   0  0  0  0  0  0  0  0  0  0  0  0
   -9.1530    5.9343   26.9437 N   0  0  0  0  0  0  0  0  0  0  0  0
   -9.2972    6.7646   27.8565 C   0  0  0  0  0  0  0  0  0  0  0  0
   -8.3044    6.4755   25.8118 C   0  0  0  0  0  0  0  0  0  0  0  0
   -7.9726    0.5115   27.6275 C   0  0  0  0  0  0  0  0  0  0  0  0
   -6.6727    0.0637   27.6829 C   0  0  0  0  0  0  0  0  0  0  0  0
   -6.3340   -1.2652   27.8744 C   0  0  0  0  0  0  0  0  0  0  0  0
   -4.9709   -1.5900   28.0314 C   0  0  0  0  0  0  0  0  0  0  0  0
   -3.9521   -0.5991   27.9681 C   0  0  0  0  0  0  0  0  0  0  0  0
   -4.3211    0.7256   27.6983 C   0  0  0  0  0  0  0  0  0  0  0  0
   -5.6515    1.0828   27.6481 C   0  0  0  0  0  0  0  0  0  0  0  0
   -6.0329    2.4270   27.4652 N   0  0  0  0  0  0  0  0  0  0  0  0
  -10.7823    1.4680   27.7125 C   0  0  0  0  0  0  0  0  0  0  0  0
  -11.7703    2.1050   28.4017 C   0  0  0  0  0  0  0  0  0  0  0  0
  -13.0441    2.1848   27.9943 C   0  0  0  0  0  0  0  0  0  0  0  0
  -13.4573    1.5781   26.9760 C   0  0  0  0  0  0  0  0  0  0  0  0
  -14.7566    1.6767   26.5140 C   0  0  0  0  0  0  0  0  0  0  0  0
  -15.6453    2.5169   27.2018 C   0  0  0  0  0  0  0  0  0  0  0  0
  -15.2670    3.2131   28.3018 C   0  0  0  0  0  0  0  0  0  0  0  0
  -13.9549    3.1168   28.7868 C   0  0  0  0  0  0  0  0  0  0  0  0
  2  7  1  0
  7  8  1  0
  7  9  1  0
  6 18  1  0
 18 19  3  0
 19 20  1  0
 11 12  1  0
 12 13  2  0
 13 14  1  0
 14 15  2  0
 15 16  1  0
  1  2  2  0
  2  3  1  0
  3  6  2  0
  6  5  1  0
  4  1  1  0
  4  5  2  0
  5 10  1  0
 10 11  2  0
 11 16  1  0
 16 17  2  0
 17  4  1  0
 20 21  2  0
 21 22  1  0
 22 23  2  0
 23 24  1  0
 24 25  2  0
 25 20  1  0
M  END
$$$$
