No_6990-complexes_sdf/6BKW-FPZ/2024-09-17-14-21-01/
     RDKit          3D

 23 26  0  0  0  0  0  0  0  0999 V2000
   -7.9040    3.9820   27.1177 C   0  0  0  0  0  0  0  0  0  0  0  0
   -7.8663    4.8694   27.9238 C   0  0  0  0  0  0  0  0  0  0  0  0
   -9.0953    3.1697   27.0532 C   0  0  0  0  0  0  0  0  0  0  0  0
  -10.1313    3.4052   27.8871 C   0  0  0  0  0  0  0  0  0  0  0  0
   -8.9489    5.3814   28.6671 C   0  0  0  0  0  0  0  0  0  0  0  0
  -10.1039    4.5714   28.7102 C   0  0  0  0  0  0  0  0  0  0  0  0
   -9.0505    1.9437   26.1963 C   0  0  0  0  0  0  0  0  0  0  0  0
   -9.5005    2.1052   24.8742 C   0  0  0  0  0  0  0  0  0  0  0  0
   -9.4919    1.0870   23.9344 C   0  0  0  0  0  0  0  0  0  0  0  0
   -8.5089    0.7561   26.5738 C   0  0  0  0  0  0  0  0  0  0  0  0
   -8.4570   -0.3334   25.6792 C   0  0  0  0  0  0  0  0  0  0  0  0
   -8.9264   -0.1459   24.3811 C   0  0  0  0  0  0  0  0  0  0  0  0
  -10.0092    3.4420   24.3569 C   0  0  0  0  0  0  0  0  0  0  0  0
  -10.6545    3.5727   23.1496 C   0  0  0  0  0  0  0  0  0  0  0  0
  -10.5497    2.4215   22.3058 C   0  0  0  0  0  0  0  0  0  0  0  0
   -9.9685    1.2136   22.6427 C   0  0  0  0  0  0  0  0  0  0  0  0
  -11.3466    2.5938   27.9230 C   0  0  0  0  0  0  0  0  0  0  0  0
  -12.3911    2.9142   28.7664 C   0  0  0  0  0  0  0  0  0  0  0  0
  -13.5436    2.0721   28.8967 C   0  0  0  0  0  0  0  0  0  0  0  0
  -13.5278    0.9021   28.1271 C   0  0  0  0  0  0  0  0  0  0  0  0
  -12.4789    0.5655   27.2816 C   0  0  0  0  0  0  0  0  0  0  0  0
  -11.3945    1.3954   27.2484 C   0  0  0  0  0  0  0  0  0  0  0  0
  -11.1053    4.6952   22.7528 F   0  0  0  0  0  0  0  0  0  0  0  0
  3  7  1  0
  4 17  1  0
 14 23  1  0
  9 16  1  0
 16 15  2  0
 15 14  1  0
 14 13  2  0
 13  8  1  0
 17 18  2  0
 18 19  1  0
 19 20  2  0
 20 21  1  0
 21 22  2  0
 22 17  1  0
  1  2  2  0
  2  5  1  0
  5  6  2  0
  6  4  1  0
  4  3  2  0
  3  1  1  0
  7  8  2  0
  8  9  1  0
  9 12  2  0
 12 11  1  0
 11 10  2  0
 10  7  1  0
M  END
$$$$
