No_687-complexes_sdf/6BKW-FPZ/2024-09-17-14-21-01/
     RDKit          3D

 36 40  0  0  0  0  0  0  0  0999 V2000
   -7.9040    3.9820   27.1177 C   0  0  0  0  0  0  0  0  0  0  0  0
   -7.8663    4.8694   27.9238 C   0  0  0  0  0  0  0  0  0  0  0  0
   -7.4698    2.6989   27.4277 C   0  0  0  0  0  0  0  0  0  0  0  0
   -7.9683    1.5964   26.8266 C   0  0  0  0  0  0  0  0  0  0  0  0
   -8.9447    1.7923   25.8533 C   0  0  0  0  0  0  0  0  0  0  0  0
   -9.4405    2.9988   25.5757 C   0  0  0  0  0  0  0  0  0  0  0  0
   -8.9424    4.1117   26.2388 C   0  0  0  0  0  0  0  0  0  0  0  0
   -8.3103    6.1970   27.6444 N   0  0  0  0  0  0  0  0  0  0  0  0
   -9.2017    6.5264   26.7040 C   0  0  0  0  0  0  0  0  0  0  0  0
   -9.5492    5.4018   25.9329 C   0  0  0  0  0  0  0  0  0  0  0  0
   -7.3783    0.2539   27.0964 C   0  0  0  0  0  0  0  0  0  0  0  0
   -6.0866    0.1289   27.5719 C   0  0  0  0  0  0  0  0  0  0  0  0
   -5.5491   -1.1005   27.9060 C   0  0  0  0  0  0  0  0  0  0  0  0
   -6.3543   -2.1968   27.7809 C   0  0  0  0  0  0  0  0  0  0  0  0
   -7.7653   -1.1317   27.1152 C   0  0  0  0  0  0  0  0  0  0  0  0
   -4.1626   -1.2785   28.4896 C   0  0  2  0  0  0  0  0  0  0  0  0
   -4.0027   -0.8512   29.8442 C   0  0  0  0  0  0  0  0  0  0  0  0
   -2.9999   -1.3474   30.5675 C   0  0  0  0  0  0  0  0  0  0  0  0
   -2.8941   -0.7152   31.8611 C   0  0  0  0  0  0  0  0  0  0  0  0
   -3.7131    0.3675   32.2433 C   0  0  0  0  0  0  0  0  0  0  0  0
   -4.6606    0.7527   31.3926 C   0  0  0  0  0  0  0  0  0  0  0  0
   -4.8039    0.2212   30.2622 C   0  0  0  0  0  0  0  0  0  0  0  0
   -8.9164   -1.7569   26.7283 C   0  0  0  0  0  0  0  0  0  0  0  0
   -9.9913   -1.5378   27.4537 N   0  0  0  0  0  0  0  0  0  0  0  0
  -11.1613   -1.1340   27.0163 C   0  0  0  0  0  0  0  0  0  0  0  0
  -12.1671   -0.6642   27.9557 C   0  0  0  0  0  0  0  0  0  0  0  0
  -11.9943   -1.0962   29.1680 C   0  0  0  0  0  0  0  0  0  0  0  0
  -10.8495   -1.6392   29.7607 C   0  0  0  0  0  0  0  0  0  0  0  0
   -9.7439   -1.8621   28.8638 C   0  0  0  0  0  0  0  0  0  0  0  0
   -8.9369   -2.2163   25.5735 O   0  0  0  0  0  0  0  0  0  0  0  0
   -3.2086   -0.7284   27.4641 C   0  0  1  0  0  0  0  0  0  0  0  0
   -2.7039    0.5257   27.5181 C   0  0  0  0  0  0  0  0  0  0  0  0
   -2.7443   -1.6699   26.4961 C   0  0  0  0  0  0  0  0  0  0  0  0
   -2.7549    1.3435   28.4652 F   0  0  0  0  0  0  0  0  0  0  0  0
   -2.9537    1.2829   26.3839 F   0  0  0  0  0  0  0  0  0  0  0  0
   -1.2569    0.3367   27.4045 F   0  0  0  0  0  0  0  0  0  0  0  0
  4 11  1  0
 11 12  2  0
 12 13  1  0
 13 14  2  0
 11 15  1  0
 14 15  1  0
 16 13  1  6
 16 17  1  0
 15 23  1  0
 23 24  1  0
 24 25  1  0
 26 27  1  0
 24 29  1  0
 28 29  1  0
 23 30  2  0
 16 31  1  0
 31 32  1  0
 31 33  1  1
 32 34  1  0
 32 35  1  0
 32 36  1  0
 25 26  1  0
 27 28  1  0
 17 18  2  0
 18 19  1  0
 19 20  2  0
 20 21  1  0
 21 22  2  0
 22 17  1  0
  1  2  2  0
  2  8  1  0
  8  9  2  0
  9 10  1  0
 10  7  2  0
  1  3  1  0
  3  4  2  0
  4  5  1  0
  5  6  2  0
  6  7  1  0
  7  1  1  0
M  END
$$$$
