No_672-complexes_sdf/6BKW-FPZ/2024-09-17-14-21-01/
     RDKit          3D

 20 23  0  0  0  0  0  0  0  0999 V2000
   -7.7129    4.2099   27.0854 C   0  0  0  0  0  0  0  0  0  0  0  0
   -8.9133    4.4736   27.0998 C   0  0  0  0  0  0  0  0  0  0  0  0
   -9.4616    5.6470   27.6290 C   0  0  0  0  0  0  0  0  0  0  0  0
   -6.8722    5.1130   27.9248 C   0  0  0  0  0  0  0  0  0  0  0  0
   -7.5620    6.1528   28.3909 C   0  0  0  0  0  0  0  0  0  0  0  0
   -8.8027    6.5065   28.2043 C   0  0  0  0  0  0  0  0  0  0  0  0
   -9.7971    3.4629   26.3108 C   0  0  0  0  0  0  0  0  0  0  0  0
  -10.1644    2.3132   26.8765 C   0  0  0  0  0  0  0  0  0  0  0  0
  -10.1365    2.0386   28.1309 C   0  0  0  0  0  0  0  0  0  0  0  0
  -10.5173    1.2027   25.9455 C   0  0  0  0  0  0  0  0  0  0  0  0
  -10.7631    1.4698   24.7389 C   0  0  0  0  0  0  0  0  0  0  0  0
  -10.3840    2.8130   24.1452 C   0  0  0  0  0  0  0  0  0  0  0  0
   -9.8325    3.7585   24.9327 C   0  0  0  0  0  0  0  0  0  0  0  0
  -10.6625    2.9219   22.7177 C   0  0  0  0  0  0  0  0  0  0  0  0
  -10.8132    4.2650   22.2567 C   0  0  0  0  0  0  0  0  0  0  0  0
  -10.8642    5.2711   23.2761 C   0  0  0  0  0  0  0  0  0  0  0  0
  -10.1736    5.1349   24.5048 C   0  0  0  0  0  0  0  0  0  0  0  0
  -10.4669    0.7653   28.6281 N   0  0  0  0  0  0  0  0  0  0  0  0
  -10.8337   -0.2484   27.7769 C   0  0  0  0  0  0  0  0  0  0  0  0
  -10.8847    0.0232   26.4300 C   0  0  0  0  0  0  0  0  0  0  0  0
  2  7  1  0
  1  2  2  0
  2  3  1  0
  3  6  2  0
  6  5  1  0
  5  4  2  0
  4  1  1  0
 13 17  1  0
 17 16  2  0
 16 15  1  0
 15 14  2  0
 14 12  1  0
  7  8  1  0
 10 11  1  0
 11 12  2  0
 12 13  1  0
 13  7  2  0
  8  9  2  0
  9 18  1  0
 18 19  2  0
 19 20  1  0
 20 10  2  0
 10  8  1  0
M  END
$$$$
