No_6030-complexes_sdf/6BKW-FPZ/2024-09-17-14-21-01/
     RDKit          3D

 25 28  0  0  0  0  0  0  0  0999 V2000
   -7.2496    3.8871   27.4508 C   0  0  0  0  0  0  0  0  0  0  0  0
   -7.6161    2.7143   27.1523 C   0  0  0  0  0  0  0  0  0  0  0  0
   -6.9719    1.5838   27.5324 C   0  0  0  0  0  0  0  0  0  0  0  0
   -7.4590    0.2827   27.2615 C   0  0  0  0  0  0  0  0  0  0  0  0
   -8.7521    2.5117   26.3068 C   0  0  0  0  0  0  0  0  0  0  0  0
   -9.5643    3.6334   25.9825 C   0  0  0  0  0  0  0  0  0  0  0  0
   -8.0314    5.1004   27.2112 C   0  0  0  0  0  0  0  0  0  0  0  0
   -9.1347    4.9790   26.3962 C   0  0  0  0  0  0  0  0  0  0  0  0
   -8.6321    0.1714   26.5274 C   0  0  0  0  0  0  0  0  0  0  0  0
   -9.2988    1.2987   26.0110 C   0  0  0  0  0  0  0  0  0  0  0  0
   -7.5884    6.4056   27.7175 C   0  0  0  0  0  0  0  0  0  0  0  0
  -10.6524    3.6164   25.0485 C   0  0  0  0  0  0  0  0  0  0  0  0
  -10.4464    3.3608   23.7599 C   0  0  0  0  0  0  0  0  0  0  0  0
  -11.3543    3.6435   22.7638 C   0  0  0  0  0  0  0  0  0  0  0  0
  -11.9101    3.6342   25.5654 C   0  0  0  0  0  0  0  0  0  0  0  0
  -12.9968    3.8580   24.6680 C   0  0  0  0  0  0  0  0  0  0  0  0
  -12.7403    3.8382   23.3146 C   0  0  0  0  0  0  0  0  0  0  0  0
   -6.7727   -0.8945   27.7858 C   0  0  0  0  0  0  0  0  0  0  0  0
   -5.4360   -0.7871   28.1538 C   0  0  0  0  0  0  0  0  0  0  0  0
   -4.7407   -1.9082   28.6317 C   0  0  0  0  0  0  0  0  0  0  0  0
   -5.4091   -3.0396   28.8001 C   0  0  0  0  0  0  0  0  0  0  0  0
   -7.3419   -2.1256   27.9902 C   0  0  0  0  0  0  0  0  0  0  0  0
   -6.7073   -3.1771   28.4896 C   0  0  0  0  0  0  0  0  0  0  0  0
   -8.4104    7.4004   27.5254 F   0  0  0  0  0  0  0  0  0  0  0  0
   -6.3679    6.7083   27.3005 F   0  0  0  0  0  0  0  0  0  0  0  0
  7 11  1  0
  6 12  1  0
  4 18  1  0
 11 24  1  0
 11 25  1  0
 12 13  2  0
 13 14  1  0
 14 17  2  0
 17 16  1  0
 16 15  2  0
 15 12  1  0
 18 19  2  0
 19 20  1  0
 20 21  2  0
 21 23  1  0
 23 22  2  0
 22 18  1  0
  2  3  1  0
  3  4  2  0
  4  9  1  0
  9 10  2  0
 10  5  1  0
  1  2  2  0
  2  5  1  0
  5  6  2  0
  6  8  1  0
  8  7  2  0
  7  1  1  0
M  END
$$$$
