No_6216-complexes_sdf/6BKW-FPZ/2024-09-17-14-21-01/
     RDKit          3D

 38 40  0  0  0  0  0  0  0  0999 V2000
   -7.2496    3.8871   27.4508 C   0  0  0  0  0  0  0  0  0  0  0  0
   -7.9379    4.9063   27.8518 C   0  0  0  0  0  0  0  0  0  0  0  0
   -8.7729    5.5444   27.0168 C   0  0  0  0  0  0  0  0  0  0  0  0
   -7.7708    3.0049   26.4155 C   0  0  0  0  0  0  0  0  0  0  0  0
   -9.4150    4.8195   25.9760 C   0  0  0  0  0  0  0  0  0  0  0  0
   -8.8843    3.5312   25.7385 C   0  0  0  0  0  0  0  0  0  0  0  0
   -9.4694    2.7939   24.6215 C   0  0  0  0  0  0  0  0  0  0  0  0
  -10.6625    2.4671   24.7391 C   0  0  0  0  0  0  0  0  0  0  0  0
  -11.4491    2.2771   25.4897 C   0  0  0  0  0  0  0  0  0  0  0  0
  -12.3376    2.0115   25.9934 C   0  0  0  0  0  0  0  0  0  0  0  0
  -13.1905    1.9315   26.9575 C   0  0  0  0  0  0  0  0  0  0  0  0
  -13.1271    2.6260   28.1157 C   0  0  0  0  0  0  0  0  0  0  0  0
  -12.0675    3.4987   28.4046 C   0  0  0  0  0  0  0  0  0  0  0  0
  -11.1412    3.5679   29.0799 C   0  0  0  0  0  0  0  0  0  0  0  0
  -12.5605    4.9225   27.9646 C   0  0  0  0  0  0  0  0  0  0  0  0
   -5.8574    3.1853   28.2662 Cl  0  0  0  0  0  0  0  0  0  0  0  0
  -11.1702    2.7718   23.4769 F   0  0  0  0  0  0  0  0  0  0  0  0
  -14.2204    0.8396   26.7534 C   0  0  0  0  0  0  0  0  0  0  0  0
  -14.4804    0.0855   26.1408 O   0  0  0  0  0  0  0  0  0  0  0  0
  -15.0401    0.7064   27.9326 O   0  0  0  0  0  0  0  0  0  0  0  0
  -10.4456    1.7594   26.2141 F   0  0  0  0  0  0  0  0  0  0  0  0
  -13.2021    1.9256   24.7101 O   0  0  0  0  0  0  0  0  0  0  0  0
  -15.8468   -0.1299   28.0841 C   0  0  0  0  0  0  0  0  0  0  0  0
  -16.8461    0.0204   29.1590 C   0  0  1  0  0  0  0  0  0  0  0  0
  -17.6661   -0.8818   29.3666 O   0  0  0  0  0  0  0  0  0  0  0  0
  -16.0271    0.3286   30.4408 C   0  0  1  0  0  0  0  0  0  0  0  0
  -15.0410   -0.2847   30.5155 O   0  0  0  0  0  0  0  0  0  0  0  0
  -14.7456   -1.2626   31.0067 C   0  0  0  0  0  0  0  0  0  0  0  0
  -14.5274   -1.2416   32.3166 C   0  0  0  0  0  0  0  0  0  0  0  0
  -14.1136   -1.7316   33.0901 C   0  0  0  0  0  0  0  0  0  0  0  0
  -13.9069   -1.4694   34.6024 C   0  0  0  0  0  0  0  0  0  0  0  0
  -14.4811   -0.2391   34.9890 C   0  0  0  0  0  0  0  0  0  0  0  0
  -14.9968    0.5807   34.0612 C   0  0  0  0  0  0  0  0  0  0  0  0
  -15.0270    0.2237   32.7679 C   0  0  0  0  0  0  0  0  0  0  0  0
  -15.9287    1.8422   30.7741 C   0  0  0  0  0  0  0  0  0  0  0  0
  -15.3655    2.2510   31.7965 C   0  0  0  0  0  0  0  0  0  0  0  0
  -15.2458    1.3409   32.0046 C   0  0  1  0  0  0  0  0  0  0  0  0
  -14.0648    1.7869   32.1334 O   0  0  0  0  0  0  0  0  0  0  0  0
  6  7  1  0
  7  8  1  0
  8  9  2  3
  9 10  1  0
 10 11  2  3
 11 12  1  0
 12 13  2  3
 13 14  1  0
 13 15  1  0
  1 16  1  0
  8 17  1  0
 11 18  1  0
 18 19  2  0
 18 20  1  0
  9 21  1  0
 10 22  1  0
 20 23  1  0
 23 24  1  0
 24 25  1  1
 24 26  1  0
 26 27  1  6
 27 28  1  0
 26 35  1  0
 35 36  2  3
 34 37  1  0
 36 37  1  0
 37 38  1  6
 28 29  1  0
 29 30  2  0
 30 31  1  0
 31 32  2  0
 32 33  1  0
 33 34  2  0
 34 29  1  0
  1  2  2  0
  2  3  1  0
  3  5  2  0
  5  6  1  0
  6  4  2  0
  4  1  1  0
M  END
$$$$
