No_6175-complexes_sdf/6BKW-FPZ/2024-09-17-14-21-01/
     RDKit          3D

 22 25  0  0  0  0  0  0  0  0999 V2000
   -7.7129    4.2099   27.0854 C   0  0  0  0  0  0  0  0  0  0  0  0
   -8.9133    4.4736   27.0998 C   0  0  0  0  0  0  0  0  0  0  0  0
   -9.8363    3.8127   27.2418 C   0  0  0  0  0  0  0  0  0  0  0  0
   -7.2995    2.8520   27.3808 C   0  0  0  0  0  0  0  0  0  0  0  0
   -8.3404    1.9507   27.4989 C   0  0  0  0  0  0  0  0  0  0  0  0
   -9.6166    2.3791   27.4719 C   0  0  0  0  0  0  0  0  0  0  0  0
   -9.3512    5.9847   27.0134 C   0  0  0  0  0  0  0  0  0  0  0  0
   -8.0067    0.4999   27.6817 C   0  0  0  0  0  0  0  0  0  0  0  0
   -9.0356   -0.4479   27.6711 C   0  0  0  0  0  0  0  0  0  0  0  0
  -10.3278    0.0510   27.5115 C   0  0  0  0  0  0  0  0  0  0  0  0
  -10.6523    1.3884   27.5700 C   0  0  0  0  0  0  0  0  0  0  0  0
   -8.4122    6.8546   26.2247 C   0  0  0  0  0  0  0  0  0  0  0  0
  -11.4496   -0.9290   27.7595 C   0  0  0  0  0  0  0  0  0  0  0  0
  -12.6014   -0.7965   27.2617 C   0  0  0  0  0  0  0  0  0  0  0  0
  -12.9393   -0.1113   26.4030 C   0  0  0  0  0  0  0  0  0  0  0  0
  -14.3266    0.0905   25.9352 C   0  0  0  0  0  0  0  0  0  0  0  0
  -14.6759    1.0200   24.9562 C   0  0  0  0  0  0  0  0  0  0  0  0
  -13.6368    1.8056   24.4028 C   0  0  0  0  0  0  0  0  0  0  0  0
  -12.3197    1.7070   24.7918 C   0  0  0  0  0  0  0  0  0  0  0  0
  -11.9933    0.8720   25.7352 C   0  0  0  0  0  0  0  0  0  0  0  0
  -10.7329    0.7218   26.0879 N   0  0  0  0  0  0  0  0  0  0  0  0
   -9.7352    0.5350   25.0892 C   0  0  0  0  0  0  0  0  0  0  0  0
  2  7  1  0
  7 12  1  0
 10 13  1  0
 13 14  1  0
 11 21  1  0
 20 21  1  0
 21 22  1  0
 14 15  1  0
 15 16  2  0
 16 17  1  0
 17 18  2  0
 18 19  1  0
 19 20  2  0
 20 15  1  0
  6 11  1  0
 11 10  2  0
 10  9  1  0
  9  8  2  0
  8  5  1  0
  1  2  2  0
  2  3  1  0
  3  6  2  0
  6  5  1  0
  5  4  2  0
  4  1  1  0
M  END
$$$$
