No_6122-complexes_sdf/6BKW-FPZ/2024-09-17-14-21-01/
     RDKit          3D

 21 23  0  0  0  0  0  0  0  0999 V2000
   -7.9040    3.9820   27.1177 C   0  0  0  0  0  0  0  0  0  0  0  0
   -9.0711    4.3164   27.0630 C   0  0  0  0  0  0  0  0  0  0  0  0
   -9.9692    3.7224   26.1073 C   0  0  0  0  0  0  0  0  0  0  0  0
   -6.9787    4.6761   28.1003 C   0  0  0  0  0  0  0  0  0  0  0  0
   -9.4538    2.6801   25.3673 C   0  0  0  0  0  0  0  0  0  0  0  0
   -8.1927    2.1957   25.6621 C   0  0  0  0  0  0  0  0  0  0  0  0
   -7.4333    2.8255   26.6299 C   0  0  0  0  0  0  0  0  0  0  0  0
  -10.3181    2.0008   24.3846 C   0  0  0  0  0  0  0  0  0  0  0  0
  -11.0588    1.3198   24.5434 C   0  0  0  0  0  0  0  0  0  0  0  0
   -9.9950    2.4561   22.9780 C   0  0  0  0  0  0  0  0  0  0  0  0
  -10.7290    2.6864   22.1528 C   0  0  0  0  0  0  0  0  0  0  0  0
  -12.1468    1.0743   23.4836 C   0  0  0  0  0  0  0  0  0  0  0  0
  -11.9115    1.7378   22.2694 C   0  0  0  0  0  0  0  0  0  0  0  0
   -7.5046    5.8209   28.6524 N   0  0  0  0  0  0  0  0  0  0  0  0
   -5.8270    4.3332   28.2905 O   0  0  0  0  0  0  0  0  0  0  0  0
  -12.8585    1.5427   21.1129 C   0  0  0  0  0  0  0  0  0  0  0  0
  -13.0979    0.6304   20.5549 C   0  0  0  0  0  0  0  0  0  0  0  0
  -14.0385    0.5243   19.4179 C   0  0  0  0  0  0  0  0  0  0  0  0
  -14.5713    1.7162   18.9612 C   0  0  0  0  0  0  0  0  0  0  0  0
  -13.4676    2.8483   20.4931 C   0  0  0  0  0  0  0  0  0  0  0  0
  -14.2580    2.8826   19.5230 C   0  0  0  0  0  0  0  0  0  0  0  0
  1  4  1  0
  5  8  1  0
  4 14  1  0
  4 15  2  0
 13 16  1  0
 16 17  2  0
 17 18  1  0
 18 19  2  0
 19 21  1  0
 21 20  2  0
 20 16  1  0
  8  9  2  0
  9 12  1  0
 12 13  2  0
 13 11  1  0
 11 10  2  0
 10  8  1  0
  1  2  2  0
  2  3  1  0
  3  5  2  0
  5  6  1  0
  6  7  2  0
  7  1  1  0
M  END
$$$$
