No_6797-complexes_sdf/6BKW-FPZ/2024-09-17-14-21-01/
     RDKit          3D

 38 42  0  0  0  0  0  0  0  0999 V2000
   -7.9040    3.9820   27.1177 C   0  0  0  0  0  0  0  0  0  0  0  0
   -7.8663    4.8694   27.9238 C   0  0  0  0  0  0  0  0  0  0  0  0
   -9.0491    3.8523   26.2542 C   0  0  0  0  0  0  0  0  0  0  0  0
   -8.7661    5.9491   27.9690 C   0  0  0  0  0  0  0  0  0  0  0  0
   -9.9295    4.8502   26.2323 C   0  0  0  0  0  0  0  0  0  0  0  0
   -9.8077    5.9288   27.0933 C   0  0  0  0  0  0  0  0  0  0  0  0
   -6.8002    2.6256   27.2024 Cl  0  0  0  0  0  0  0  0  0  0  0  0
   -9.0975    2.7884   25.3552 O   0  0  0  0  0  0  0  0  0  0  0  0
  -10.2780    2.1769   25.2423 C   0  0  0  0  0  0  0  0  0  0  0  0
  -10.3912    1.5403   24.1347 C   0  0  0  0  0  0  0  0  0  0  0  0
   -9.5413    0.8832   23.5538 C   0  0  0  0  0  0  0  0  0  0  0  0
   -9.5983    0.2582   22.2042 C   0  0  0  0  0  0  0  0  0  0  0  0
  -10.8310    0.3404   21.5628 C   0  0  0  0  0  0  0  0  0  0  0  0
  -11.8429    1.0193   22.1527 C   0  0  0  0  0  0  0  0  0  0  0  0
  -11.6709    1.6532   23.3627 C   0  0  0  0  0  0  0  0  0  0  0  0
  -11.1227    2.1705   26.1645 O   0  0  0  0  0  0  0  0  0  0  0  0
  -13.1042    1.0953   21.3708 C   0  0  0  0  0  0  0  0  0  0  0  0
  -14.0638    1.9141   21.8315 C   0  0  0  0  0  0  0  0  0  0  0  0
  -13.8066    2.6078   23.0792 C   0  0  0  0  0  0  0  0  0  0  0  0
  -12.7148    2.5371   23.8459 C   0  0  0  0  0  0  0  0  0  0  0  0
  -14.9413    3.5701   23.3892 C   0  0  1  0  0  0  0  0  0  0  0  0
  -14.6305    4.3419   24.5662 C   0  0  0  0  0  0  0  0  0  0  0  0
  -14.9275    4.1320   25.6262 C   0  0  0  0  0  0  0  0  0  0  0  0
  -14.7161    4.5897   26.7696 C   0  0  0  0  0  0  0  0  0  0  0  0
  -14.3189    4.4523   28.0526 C   0  0  0  0  0  0  0  0  0  0  0  0
  -13.7845    3.2147   28.4813 C   0  0  0  0  0  0  0  0  0  0  0  0
  -13.2782    3.0751   29.8637 C   0  0  0  0  0  0  0  0  0  0  0  0
  -13.7188    3.9343   30.8157 C   0  0  0  0  0  0  0  0  0  0  0  0
  -14.4993    5.0852   30.4368 C   0  0  0  0  0  0  0  0  0  0  0  0
  -14.7608    5.3502   29.0842 C   0  0  0  0  0  0  0  0  0  0  0  0
  -15.6992    2.8623   25.8947 C   0  0  0  0  0  0  0  0  0  0  0  0
  -17.0157    2.8761   25.5612 C   0  0  0  0  0  0  0  0  0  0  0  0
  -17.5083    1.6597   25.1283 C   0  0  0  0  0  0  0  0  0  0  0  0
  -16.8312    0.4893   25.4036 C   0  0  0  0  0  0  0  0  0  0  0  0
  -15.5170    0.4930   25.8595 C   0  0  0  0  0  0  0  0  0  0  0  0
  -14.9502    1.6620   26.0317 C   0  0  0  0  0  0  0  0  0  0  0  0
  -16.0247    3.7904   22.6256 C   0  0  0  0  0  0  0  0  0  0  0  0
  -16.3418    3.0996   21.4998 C   0  0  0  0  0  0  0  0  0  0  0  0
  1  7  1  0
  3  8  1  0
  8  9  1  0
  9 10  1  0
  9 16  2  0
 19 21  1  0
 21 22  1  0
 22 23  2  3
 23 24  1  0
 23 31  1  0
 21 37  1  6
 37 38  2  0
 24 25  1  0
 25 26  2  0
 26 27  1  0
 27 28  2  0
 28 29  1  0
 29 30  2  0
 30 25  1  0
 15 20  2  0
 20 19  1  0
 19 18  2  0
 18 17  1  0
 17 14  2  0
 31 32  2  0
 32 33  1  0
 33 34  2  0
 34 35  1  0
 35 36  2  0
 36 31  1  0
 10 11  2  0
 11 12  1  0
 12 13  2  0
 13 14  1  0
 14 15  1  0
 15 10  1  0
  1  2  2  0
  2  4  1  0
  4  6  2  0
  6  5  1  0
  5  3  2  0
  3  1  1  0
M  END
$$$$
