No_6349-complexes_sdf/6BKW-FPZ/2024-09-17-14-21-01/
     RDKit          3D

 27 30  0  0  0  0  0  0  0  0999 V2000
   -7.9040    3.9820   27.1177 C   0  0  0  0  0  0  0  0  0  0  0  0
   -7.8663    4.8694   27.9238 C   0  0  0  0  0  0  0  0  0  0  0  0
   -7.4698    2.6989   27.4277 C   0  0  0  0  0  0  0  0  0  0  0  0
   -7.9683    1.5964   26.8266 C   0  0  0  0  0  0  0  0  0  0  0  0
   -8.9447    1.7923   25.8533 C   0  0  0  0  0  0  0  0  0  0  0  0
   -9.4405    2.9988   25.5757 C   0  0  0  0  0  0  0  0  0  0  0  0
   -8.9424    4.1117   26.2388 C   0  0  0  0  0  0  0  0  0  0  0  0
   -8.3103    6.1970   27.6444 N   0  0  0  0  0  0  0  0  0  0  0  0
   -9.2017    6.5264   26.7040 C   0  0  0  0  0  0  0  0  0  0  0  0
   -9.5492    5.4018   25.9329 C   0  0  0  0  0  0  0  0  0  0  0  0
   -7.2252    0.3366   27.1878 C   0  0  0  0  0  0  0  0  0  0  0  0
   -7.9931   -0.7773   27.5019 C   0  0  0  0  0  0  0  0  0  0  0  0
   -7.6166   -1.7323   27.9386 C   0  0  0  0  0  0  0  0  0  0  0  0
   -6.1814   -1.9062   28.2604 C   0  0  0  0  0  0  0  0  0  0  0  0
   -5.3603   -0.8407   27.9952 C   0  0  0  0  0  0  0  0  0  0  0  0
   -5.8998    0.3400   27.5349 C   0  0  0  0  0  0  0  0  0  0  0  0
   -3.9011   -0.8728   28.3999 C   0  0  2  0  0  0  0  0  0  0  0  0
   -3.5750   -0.4234   29.6149 C   0  0  2  0  0  0  0  0  0  0  0  0
   -2.6522   -1.1473   30.4371 C   0  0  0  0  0  0  0  0  0  0  0  0
   -1.6442   -1.7603   29.9223 C   0  0  0  0  0  0  0  0  0  0  0  0
   -2.9593   -1.1929   27.4366 C   0  0  0  0  0  0  0  0  0  0  0  0
   -1.2249   -2.1616   28.6437 C   0  0  0  0  0  0  0  0  0  0  0  0
   -1.9273   -2.0632   27.5421 C   0  0  0  0  0  0  0  0  0  0  0  0
   -4.5001    0.9140   30.3683 Cl  0  0  0  0  0  0  0  0  0  0  0  0
  -10.3940    3.1054   24.4590 C   0  0  0  0  0  0  0  0  0  0  0  0
  -11.5296    3.6828   24.6032 C   0  0  0  0  0  0  0  0  0  0  0  0
  -12.4816    3.7492   23.5574 C   0  0  0  0  0  0  0  0  0  0  0  0
  4 11  1  0
 17 15  1  6
 17 18  1  0
 18 19  1  0
 19 20  2  0
 17 21  1  0
 20 22  1  0
 21 23  2  0
 22 23  2  0
 18 24  1  1
  6 25  1  0
 25 26  2  3
 26 27  1  0
 11 12  2  0
 12 13  1  0
 13 14  2  0
 14 15  1  0
 15 16  2  0
 16 11  1  0
  1  2  2  0
  2  8  1  0
  8  9  2  0
  9 10  1  0
 10  7  2  0
  1  3  1  0
  3  4  2  0
  4  5  1  0
  5  6  2  0
  6  7  1  0
  7  1  1  0
M  END
$$$$
