No_6168-complexes_sdf/6BKW-FPZ/2024-09-17-14-21-01/
     RDKit          3D

 36 40  0  0  0  0  0  0  0  0999 V2000
   -7.2496    3.8871   27.4508 C   0  0  0  0  0  0  0  0  0  0  0  0
   -8.5096    4.0291   27.2770 C   0  0  0  0  0  0  0  0  0  0  0  0
   -9.2669    5.1645   27.5845 C   0  0  0  0  0  0  0  0  0  0  0  0
   -8.6549    6.1494   27.2495 C   0  0  0  0  0  0  0  0  0  0  0  0
   -6.5322    5.1360   27.5227 C   0  0  0  0  0  0  0  0  0  0  0  0
   -7.2402    6.2772   27.5091 C   0  0  0  0  0  0  0  0  0  0  0  0
   -9.1365    2.5516   27.2798 C   0  0  0  0  0  0  0  0  0  0  0  0
  -10.4244    2.4263   27.6011 C   0  0  0  0  0  0  0  0  0  0  0  0
  -11.2061    3.5437   28.1142 C   0  0  0  0  0  0  0  0  0  0  0  0
  -10.6823    4.8938   27.8797 C   0  0  0  0  0  0  0  0  0  0  0  0
   -8.3466    1.4102   27.0686 C   0  0  0  0  0  0  0  0  0  0  0  0
   -8.2218    1.0309   25.7589 C   0  0  0  0  0  0  0  0  0  0  0  0
   -7.5201   -0.1447   25.4372 C   0  0  0  0  0  0  0  0  0  0  0  0
   -6.7470   -0.7938   26.4390 C   0  0  0  0  0  0  0  0  0  0  0  0
   -6.8395   -0.3570   27.7275 C   0  0  0  0  0  0  0  0  0  0  0  0
   -7.6034    0.7359   28.0346 C   0  0  0  0  0  0  0  0  0  0  0  0
   -6.0667   -1.0549   28.7995 C   0  0  0  0  0  0  0  0  0  0  0  0
   -6.7780   -1.6098   29.6486 F   0  0  0  0  0  0  0  0  0  0  0  0
   -5.2820   -0.0782   29.4889 F   0  0  0  0  0  0  0  0  0  0  0  0
   -5.1573   -1.8799   28.2871 F   0  0  0  0  0  0  0  0  0  0  0  0
  -12.6206    3.3949   28.4965 C   0  0  0  0  0  0  0  0  0  0  0  0
  -13.5358    4.1300   28.3588 C   0  0  0  0  0  0  0  0  0  0  0  0
  -14.8640    4.0758   28.8623 C   0  0  0  0  0  0  0  0  0  0  0  0
  -15.1185    2.9750   29.6591 C   0  0  0  0  0  0  0  0  0  0  0  0
  -14.1291    2.0690   29.9551 C   0  0  0  0  0  0  0  0  0  0  0  0
  -12.8543    2.2341   29.4820 C   0  0  0  0  0  0  0  0  0  0  0  0
   -8.9864    1.6877   24.6452 C   0  0  0  0  0  0  0  0  0  0  0  0
   -9.7095    2.8457   24.7445 C   0  0  0  0  0  0  0  0  0  0  0  0
  -10.1753    3.2706   23.3975 C   0  0  0  0  0  0  0  0  0  0  0  0
  -10.8642    4.5666   23.2924 C   0  0  0  0  0  0  0  0  0  0  0  0
  -10.3825    2.2373   22.3937 C   0  0  0  0  0  0  0  0  0  0  0  0
   -9.6968    1.0510   22.4189 C   0  0  0  0  0  0  0  0  0  0  0  0
   -9.0117    0.8215   23.5017 C   0  0  0  0  0  0  0  0  0  0  0  0
  -14.3651    1.0424   30.7878 F   0  0  0  0  0  0  0  0  0  0  0  0
  -10.5293    5.2553   24.3063 F   0  0  0  0  0  0  0  0  0  0  0  0
  -12.1974    4.4805   23.1896 F   0  0  0  0  0  0  0  0  0  0  0  0
  7 11  1  0
 15 17  1  0
 17 18  1  0
 17 19  1  0
 17 20  1  0
  9 21  1  0
 12 27  1  0
 25 34  1  0
 30 35  1  0
 30 36  1  0
 30 29  1  0
 27 28  2  0
 28 29  1  0
 29 31  2  0
 31 32  1  0
 32 33  2  0
 33 27  1  0
  1  2  2  0
  3  4  2  0
  4  6  1  0
  6  5  2  0
  5  1  1  0
  2  3  1  0
  3 10  1  0
 10  9  2  0
  9  8  1  0
  8  7  2  0
  7  2  1  0
 11 12  1  0
 12 13  2  0
 13 14  1  0
 14 15  2  0
 15 16  1  0
 16 11  2  0
 21 22  2  0
 22 23  1  0
 23 24  2  0
 24 25  1  0
 25 26  2  0
 26 21  1  0
M  END
$$$$
