No_6390-complexes_sdf/6BKW-FPZ/2024-09-17-14-21-01/
     RDKit          3D

 40 46  0  0  0  0  0  0  0  0999 V2000
   -7.9040    3.9820   27.1177 C   0  0  0  0  0  0  0  0  0  0  0  0
   -7.8663    4.8694   27.9238 C   0  0  0  0  0  0  0  0  0  0  0  0
   -7.4698    2.6989   27.4277 C   0  0  1  0  0  0  0  0  0  0  0  0
   -7.9683    1.5964   26.8266 C   0  0  1  0  0  0  0  0  0  0  0  0
   -8.9447    1.7923   25.8533 C   0  0  0  0  0  0  0  0  0  0  0  0
   -9.4405    2.9988   25.5757 C   0  0  0  0  0  0  0  0  0  0  0  0
   -8.9424    4.1117   26.2388 C   0  0  0  0  0  0  0  0  0  0  0  0
   -8.2460    6.2906   27.6575 C   0  0  0  0  0  0  0  0  0  0  0  0
   -9.1845    6.5830   26.6401 C   0  0  0  0  0  0  0  0  0  0  0  0
   -9.4761    5.5443   26.0453 C   0  0  0  0  0  0  0  0  0  0  0  0
   -7.4015    0.2514   27.0810 C   0  0  0  0  0  0  0  0  0  0  0  0
   -6.0810    0.0837   27.4928 C   0  0  0  0  0  0  0  0  0  0  0  0
   -5.5663   -1.0816   27.8981 C   0  0  0  0  0  0  0  0  0  0  0  0
   -4.2168   -1.1302   28.4010 C   0  0  0  0  0  0  0  0  0  0  0  0
   -3.4216    0.0477   28.4603 C   0  0  0  0  0  0  0  0  0  0  0  0
   -4.0241    1.2758   28.1210 C   0  0  0  0  0  0  0  0  0  0  0  0
   -5.2934    1.2944   27.6747 C   0  0  0  0  0  0  0  0  0  0  0  0
   -6.0095    2.5394   27.5817 N   0  0  0  0  0  0  0  0  0  0  0  0
  -10.4974    3.1650   24.5363 C   0  0  0  0  0  0  0  0  0  0  0  0
  -11.7030    3.5594   24.9035 C   0  0  0  0  0  0  0  0  0  0  0  0
  -10.1668    2.8362   23.2260 C   0  0  0  0  0  0  0  0  0  0  0  0
  -12.1878    3.5368   26.1362 C   0  0  0  0  0  0  0  0  0  0  0  0
  -12.6281    3.9671   23.8282 C   0  0  0  0  0  0  0  0  0  0  0  0
  -13.4237    3.9144   26.6108 C   0  0  0  0  0  0  0  0  0  0  0  0
  -13.5611    4.3760   27.9224 C   0  0  0  0  0  0  0  0  0  0  0  0
  -13.3523    3.7563   28.8444 C   0  0  0  0  0  0  0  0  0  0  0  0
  -12.0585    2.8793   28.6614 C   0  0  0  0  0  0  0  0  0  0  0  0
  -11.4949    2.8331   27.3340 C   0  0  0  0  0  0  0  0  0  0  0  0
  -10.8759    3.3514   22.1968 C   0  0  0  0  0  0  0  0  0  0  0  0
  -11.7409    4.0582   22.4021 C   0  0  0  0  0  0  0  0  0  0  0  0
   -9.4575    0.7875   25.2667 O   0  0  0  0  0  0  0  0  0  0  0  0
  -13.6454    3.9147   30.2910 C   0  0  0  0  0  0  0  0  0  0  0  0
  -13.0785    3.3081   31.3719 C   0  0  0  0  0  0  0  0  0  0  0  0
  -13.4994    3.4355   32.6864 C   0  0  0  0  0  0  0  0  0  0  0  0
  -14.4675    4.4670   32.9490 C   0  0  0  0  0  0  0  0  0  0  0  0
  -14.6832    4.8827   30.6621 C   0  0  0  0  0  0  0  0  0  0  0  0
  -14.9039    4.6800   34.3051 C   0  0  0  0  0  0  0  0  0  0  0  0
  -15.0632    5.1611   31.9367 C   0  0  0  0  0  0  0  0  0  0  0  0
  -14.1821    5.2061   35.0370 O   0  0  0  0  0  0  0  0  0  0  0  0
  -16.1021    4.3283   34.6269 O   0  0  0  0  0  0  0  0  0  0  0  0
  1  3  1  0
  3  4  1  0
  4  5  1  0
  5  6  1  0
  6  7  1  0
  4 11  1  6
 11 12  1  0
  3 18  1  6
 17 18  1  0
  6 19  1  0
 20 22  1  0
  5 31  2  0
 26 32  1  0
 35 37  1  0
 37 39  1  0
 37 40  2  0
 12 13  2  0
 13 14  1  0
 14 15  2  0
 15 16  1  0
 16 17  2  0
 17 12  1  0
  1  2  2  0
  2  8  1  0
  8  9  2  0
  9 10  1  0
 10  7  2  0
  7  1  1  0
 32 33  2  0
 33 34  1  0
 34 35  2  0
 35 38  1  0
 38 36  2  0
 36 32  1  0
 22 24  2  0
 24 25  1  0
 25 26  2  0
 26 27  1  0
 27 28  2  0
 28 22  1  0
 19 20  2  0
 20 23  1  0
 23 30  2  0
 30 29  1  0
 29 21  2  0
 21 19  1  0
M  END
$$$$
