No_691-complexes_sdf/6BKW-FPZ/2024-09-17-14-21-01/
     RDKit          3D

 12 13  0  0  0  0  0  0  0  0999 V2000
   -7.9040    3.9820   27.1177 C   0  0  0  0  0  0  0  0  0  0  0  0
   -7.8663    4.8694   27.9238 C   0  0  0  0  0  0  0  0  0  0  0  0
   -9.0491    3.8523   26.2542 C   0  0  0  0  0  0  0  0  0  0  0  0
   -9.7161    4.8785   25.9890 C   0  0  0  0  0  0  0  0  0  0  0  0
   -8.5086    6.0982   27.7096 C   0  0  0  0  0  0  0  0  0  0  0  0
   -9.5239    6.1123   26.7949 C   0  0  0  0  0  0  0  0  0  0  0  0
   -7.1422    2.6522   27.4171 C   0  0  0  0  0  0  0  0  0  0  0  0
   -5.8939    2.7108   28.0266 C   0  0  0  0  0  0  0  0  0  0  0  0
   -7.5502    1.3679   26.8847 C   0  0  0  0  0  0  0  0  0  0  0  0
   -5.0580    1.5899   28.1438 C   0  0  0  0  0  0  0  0  0  0  0  0
   -6.7696    0.2758   27.1214 C   0  0  0  0  0  0  0  0  0  0  0  0
   -5.5069    0.3956   27.7707 C   0  0  0  0  0  0  0  0  0  0  0  0
  1  7  1  0
  1  2  2  0
  2  5  1  0
  5  6  2  0
  6  4  1  0
  4  3  2  0
  3  1  1  0
  7  8  2  0
  8 10  1  0
 10 12  2  0
 12 11  1  0
 11  9  2  0
  9  7  1  0
M  END
$$$$
