No_6102-complexes_sdf/6BKW-FPZ/2024-09-17-14-21-01/
     RDKit          3D

 14 16  0  0  0  0  0  0  0  0999 V2000
   -7.9040    3.9820   27.1177 C   0  0  0  0  0  0  0  0  0  0  0  0
   -9.0711    4.3164   27.0630 C   0  0  1  0  0  0  0  0  0  0  0  0
   -9.5294    5.4517   27.7215 C   0  0  0  0  0  0  0  0  0  0  0  0
   -9.9845    3.5634   26.2189 C   0  0  2  0  0  0  0  0  0  0  0  0
  -10.5758    2.5046   26.7628 C   0  0  0  0  0  0  0  0  0  0  0  0
  -11.3159    1.7641   26.2485 C   0  0  0  0  0  0  0  0  0  0  0  0
   -7.3067    2.6894   26.7816 C   0  0  0  0  0  0  0  0  0  0  0  0
   -6.1502    2.2443   27.4956 C   0  0  0  0  0  0  0  0  0  0  0  0
   -5.8077    0.9208   27.3924 C   0  0  0  0  0  0  0  0  0  0  0  0
   -6.7090   -0.0207   26.8507 C   0  0  0  0  0  0  0  0  0  0  0  0
   -7.9219    0.4361   26.3268 C   0  0  0  0  0  0  0  0  0  0  0  0
   -8.2703    1.7599   26.4168 C   0  0  0  0  0  0  0  0  0  0  0  0
   -9.6147    2.1172   26.3107 C   0  0  2  0  0  0  0  0  0  0  0  0
  -11.3884    0.3143   26.4304 C   0  0  0  0  0  0  0  0  0  0  0  0
  1  2  1  0
  2  3  1  6
  2  4  1  0
  4  5  1  1
  5  6  2  3
  1  7  1  0
  4 13  1  0
  5 13  1  0
 13 12  1  1
  6 14  1  0
  7  8  2  0
  8  9  1  0
  9 10  2  0
 10 11  1  0
 11 12  2  0
 12  7  1  0
M  END
$$$$
