No_6643-complexes_sdf/6BKW-FPZ/2024-09-17-14-21-01/
     RDKit          3D

 33 37  0  0  0  0  0  0  0  0999 V2000
   -7.7129    4.2099   27.0854 C   0  0  0  0  0  0  0  0  0  0  0  0
   -8.2112    3.0637   26.9225 C   0  0  0  0  0  0  0  0  0  0  0  0
   -9.4446    2.8304   26.1868 C   0  0  0  0  0  0  0  0  0  0  0  0
   -6.6388    4.5347   28.1122 C   0  0  0  0  0  0  0  0  0  0  0  0
   -9.9448    3.9173   25.5585 C   0  0  0  0  0  0  0  0  0  0  0  0
   -9.3660    5.1901   25.7094 C   0  0  0  0  0  0  0  0  0  0  0  0
   -8.3659    5.4005   26.5436 C   0  0  0  0  0  0  0  0  0  0  0  0
  -11.0752    3.9658   24.5526 C   0  0  0  0  0  0  0  0  0  0  0  0
  -10.8863    4.0088   23.1908 C   0  0  0  0  0  0  0  0  0  0  0  0
  -11.8867    4.1985   22.3265 C   0  0  0  0  0  0  0  0  0  0  0  0
  -13.2208    4.2500   22.8080 C   0  0  0  0  0  0  0  0  0  0  0  0
  -12.4161    4.1146   25.0161 C   0  0  0  0  0  0  0  0  0  0  0  0
  -12.6514    4.0492   26.4558 C   0  0  0  0  0  0  0  0  0  0  0  0
  -13.4897    4.2590   24.1412 C   0  0  0  0  0  0  0  0  0  0  0  0
  -12.9961    3.0695   27.1651 C   0  0  0  0  0  0  0  0  0  0  0  0
  -13.1677    3.1408   28.5785 C   0  0  0  0  0  0  0  0  0  0  0  0
  -12.8923    4.2696   29.2411 C   0  0  0  0  0  0  0  0  0  0  0  0
  -12.2956    5.2251   27.3346 C   0  0  0  0  0  0  0  0  0  0  0  0
  -12.3919    5.2877   28.6405 C   0  0  0  0  0  0  0  0  0  0  0  0
   -5.6641    3.6081   28.1167 N   0  0  0  0  0  0  0  0  0  0  0  0
   -6.6422    5.6065   28.8134 N   0  0  0  0  0  0  0  0  0  0  0  0
  -14.8627    4.5265   24.4731 C   0  0  0  0  0  0  0  0  0  0  0  0
  -15.5052    3.9533   25.0319 C   0  0  0  0  0  0  0  0  0  0  0  0
  -16.8293    4.2674   25.5185 C   0  0  0  0  0  0  0  0  0  0  0  0
  -17.3217    5.5185   25.1842 C   0  0  0  0  0  0  0  0  0  0  0  0
  -16.5019    6.4260   24.5206 C   0  0  0  0  0  0  0  0  0  0  0  0
  -15.2260    6.0264   24.1566 C   0  0  0  0  0  0  0  0  0  0  0  0
  -13.6811    1.8456   29.2934 C   0  0  0  0  0  0  0  0  0  0  0  0
  -14.7264    1.2515   28.8853 N   0  0  0  0  0  0  0  0  0  0  0  0
  -15.2645    0.4314   29.1373 C   0  0  0  0  0  0  0  0  0  0  0  0
  -14.9384   -0.2243   30.2577 C   0  0  0  0  0  0  0  0  0  0  0  0
  -13.7552    0.2366   30.8949 C   0  0  0  0  0  0  0  0  0  0  0  0
  -13.0504    1.3761   30.4459 C   0  0  0  0  0  0  0  0  0  0  0  0
  1  4  1  0
  5  8  1  0
 12 13  1  0
  4 20  1  0
  4 21  2  0
 14 22  1  0
 16 28  1  0
  8  9  2  0
  9 10  1  0
 10 11  2  0
 11 14  1  0
 14 12  2  0
 12  8  1  0
  1  2  2  0
  2  3  1  0
  3  5  2  0
  5  6  1  0
  6  7  2  0
  7  1  1  0
 22 23  2  0
 23 24  1  0
 24 25  2  0
 25 26  1  0
 26 27  2  0
 27 22  1  0
 13 15  2  0
 15 16  1  0
 16 17  2  0
 17 19  1  0
 19 18  2  0
 18 13  1  0
 28 29  2  0
 29 30  1  0
 30 31  2  0
 31 32  1  0
 32 33  2  0
 33 28  1  0
M  END
$$$$
