No_6753-complexes_sdf/6BKW-FPZ/2024-09-17-14-21-01/
     RDKit          3D

 30 33  0  0  0  0  0  0  0  0999 V2000
   -7.2496    3.8871   27.4508 C   0  0  0  0  0  0  0  0  0  0  0  0
   -7.6161    2.7143   27.1523 C   0  0  0  0  0  0  0  0  0  0  0  0
   -8.6212    2.2239   26.4073 C   0  0  0  0  0  0  0  0  0  0  0  0
   -8.2540    4.9237   27.1711 C   0  0  0  0  0  0  0  0  0  0  0  0
   -9.3729    4.5806   26.4432 C   0  0  0  0  0  0  0  0  0  0  0  0
   -9.5830    3.2969   26.1026 C   0  0  0  0  0  0  0  0  0  0  0  0
   -7.9332    6.3206   27.5425 C   0  0  0  0  0  0  0  0  0  0  0  0
   -8.8354    7.2793   27.1605 N   0  0  0  0  0  0  0  0  0  0  0  0
   -9.0848    0.9374   26.0210 C   0  0  0  0  0  0  0  0  0  0  0  0
   -9.6403    0.6679   25.0244 C   0  0  0  0  0  0  0  0  0  0  0  0
  -10.4699    1.7623   24.3926 C   0  0  0  0  0  0  0  0  0  0  0  0
  -10.4838    3.0288   25.0000 C   0  0  0  0  0  0  0  0  0  0  0  0
  -11.4306    1.4975   23.3161 C   0  0  0  0  0  0  0  0  0  0  0  0
  -12.6247    1.3053   23.5097 C   0  0  0  0  0  0  0  0  0  0  0  0
  -10.8440    1.4661   21.9740 C   0  0  0  0  0  0  0  0  0  0  0  0
  -13.5539    1.0784   22.4803 C   0  0  0  0  0  0  0  0  0  0  0  0
  -11.6656    1.2447   20.8583 C   0  0  0  0  0  0  0  0  0  0  0  0
  -13.0101    1.0539   21.1276 C   0  0  0  0  0  0  0  0  0  0  0  0
   -7.0745    6.5839   28.4344 O   0  0  0  0  0  0  0  0  0  0  0  0
  -11.2714    4.1033   24.4463 C   0  0  0  0  0  0  0  0  0  0  0  0
   -6.5386    1.6064   27.6168 C   0  0  0  0  0  0  0  0  0  0  0  0
   -5.4661    1.8740   28.2218 O   0  0  0  0  0  0  0  0  0  0  0  0
   -6.7379    0.2403   27.2891 N   0  0  0  0  0  0  0  0  0  0  0  0
   -5.8090   -0.6345   27.8285 C   0  0  0  0  0  0  0  0  0  0  0  0
   -5.5000   -1.5964   26.9805 C   0  0  0  0  0  0  0  0  0  0  0  0
   -6.2185   -1.8887   26.0327 C   0  0  0  0  0  0  0  0  0  0  0  0
   -7.1344   -0.9595   25.4572 C   0  0  0  0  0  0  0  0  0  0  0  0
   -7.4694   -0.1839   26.3600 C   0  0  1  0  0  0  0  0  0  0  0  0
   -8.4377   -0.9316   27.1551 F   0  0  0  0  0  0  0  0  0  0  0  0
   -9.9607    0.7068   27.1672 O   0  0  0  0  0  0  0  0  0  0  0  0
  4  7  1  0
  7  8  2  0
 11 13  1  0
  7 19  1  0
 12 20  1  0
  2 21  1  0
 21 22  2  0
 21 23  1  0
 23 24  1  0
 24 25  1  0
 26 27  1  0
 23 28  1  0
 28 29  1  1
  9 30  1  0
 25 26  1  0
 27 28  1  0
  6 12  2  0
 12 11  1  0
 11 10  2  0
 10  9  1  0
  9  3  2  0
 13 14  2  0
 14 16  1  0
 16 18  2  0
 18 17  1  0
 17 15  2  0
 15 13  1  0
  1  2  2  0
  2  3  1  0
  3  6  1  0
  6  5  1  0
  5  4  2  0
  4  1  1  0
M  END
$$$$
