No_6368-complexes_sdf/6BKW-FPZ/2024-09-17-14-21-01/
     RDKit          3D

 10  9  0  0  0  0  0  0  0  0999 V2000
   -7.7129    4.2099   27.0854 C   0  0  0  0  0  0  0  0  0  0  0  0
   -7.7814    5.1722   27.8972 C   0  0  0  0  0  0  0  0  0  0  0  0
   -8.7889    3.2468   27.2220 C   0  0  0  0  0  0  0  0  0  0  0  0
   -8.5940    1.9755   26.6525 C   0  0  0  0  0  0  0  0  0  0  0  0
   -9.4990    1.3567   25.9026 C   0  0  0  0  0  0  0  0  0  0  0  0
   -6.8251    6.2259   27.8735 C   0  0  0  0  0  0  0  0  0  0  0  0
   -9.9664    3.5415   27.9058 C   0  0  0  0  0  0  0  0  0  0  0  0
  -10.6399    2.0179   25.7062 C   0  0  0  0  0  0  0  0  0  0  0  0
  -11.6349    1.6220   24.9659 C   0  0  0  0  0  0  0  0  0  0  0  0
  -10.9481    2.9770   27.6933 C   0  0  0  0  0  0  0  0  0  0  0  0
  1  2  1  0
  1  3  1  0
  3  4  1  0
  4  5  2  3
  2  6  1  0
  3  7  1  0
  5  8  1  0
  8  9  2  0
  7 10  2  0
M  END
$$$$
