No_6902-complexes_sdf/6BKW-FPZ/2024-09-17-14-21-01/
     RDKit          3D

 21 23  0  0  0  0  0  0  0  0999 V2000
   -7.9040    3.9820   27.1177 C   0  0  0  0  0  0  0  0  0  0  0  0
   -9.0711    4.3164   27.0630 C   0  0  0  0  0  0  0  0  0  0  0  0
   -9.8698    3.9665   25.9494 C   0  0  0  0  0  0  0  0  0  0  0  0
   -7.0332    4.5030   28.2025 C   0  0  0  0  0  0  0  0  0  0  0  0
  -10.9909    4.7237   25.5958 C   0  0  0  0  0  0  0  0  0  0  0  0
   -7.4989    5.5573   28.9524 C   0  0  0  0  0  0  0  0  0  0  0  0
  -11.7350    4.2316   24.5284 C   0  0  0  0  0  0  0  0  0  0  0  0
  -11.2838    3.2467   23.6902 C   0  0  0  0  0  0  0  0  0  0  0  0
  -10.1349    2.5964   24.0049 C   0  0  0  0  0  0  0  0  0  0  0  0
   -9.3929    2.9470   25.1474 C   0  0  0  0  0  0  0  0  0  0  0  0
   -9.4723    5.4338   27.9018 C   0  0  0  0  0  0  0  0  0  0  0  0
   -8.6890    5.9827   28.8022 N   0  0  0  0  0  0  0  0  0  0  0  0
   -9.6478    1.4460   23.1824 C   0  0  0  0  0  0  0  0  0  0  0  0
   -8.7048    0.6035   23.6563 C   0  0  0  0  0  0  0  0  0  0  0  0
   -8.2723   -0.4661   22.9070 C   0  0  0  0  0  0  0  0  0  0  0  0
   -8.7972   -0.6859   21.6165 C   0  0  0  0  0  0  0  0  0  0  0  0
  -10.1062    1.2448   21.9093 C   0  0  0  0  0  0  0  0  0  0  0  0
   -9.7226    0.2118   21.1640 C   0  0  0  0  0  0  0  0  0  0  0  0
   -8.3889   -1.8234   20.8055 C   0  0  0  0  0  0  0  0  0  0  0  0
   -7.1421   -2.4252   21.0714 C   0  0  0  0  0  0  0  0  0  0  0  0
   -6.5330   -2.1368   22.3810 C   0  0  0  0  0  0  0  0  0  0  0  0
  9 13  1  0
 16 19  1  0
 19 20  2  3
 20 21  1  0
  3  2  1  0
  1  2  2  0
  2 11  1  0
 11 12  2  0
 12  6  1  0
  6  4  2  0
  4  1  1  0
 13 14  2  0
 14 15  1  0
 15 16  2  0
 16 18  1  0
 18 17  2  0
 17 13  1  0
  3  5  2  0
  5  7  1  0
  7  8  2  0
  8  9  1  0
  9 10  2  0
 10  3  1  0
M  END
$$$$
