No_6989-complexes_sdf/6BKW-FPZ/2024-09-17-14-21-01/
     RDKit          3D

 19 21  0  0  0  0  0  0  0  0999 V2000
   -7.7129    4.2099   27.0854 C   0  0  0  0  0  0  0  0  0  0  0  0
   -8.2112    3.0637   26.9225 C   0  0  0  0  0  0  0  0  0  0  0  0
   -7.0021    4.5281   28.2396 C   0  0  0  0  0  0  0  0  0  0  0  0
   -7.5497    1.9016   27.4549 C   0  0  0  0  0  0  0  0  0  0  0  0
   -8.0831    0.6050   27.2852 C   0  0  0  0  0  0  0  0  0  0  0  0
   -9.3547    0.5536   26.6944 C   0  0  0  0  0  0  0  0  0  0  0  0
  -10.0285    1.6221   26.2017 C   0  0  0  0  0  0  0  0  0  0  0  0
   -9.4618    2.8627   26.3003 C   0  0  0  0  0  0  0  0  0  0  0  0
   -8.4328    5.3517   26.4935 C   0  0  0  0  0  0  0  0  0  0  0  0
   -8.1392    6.7281   26.9017 C   0  0  0  0  0  0  0  0  0  0  0  0
   -6.8433    5.9193   28.7422 C   0  0  0  0  0  0  0  0  0  0  0  0
   -7.3557    6.9393   27.9995 C   0  0  0  0  0  0  0  0  0  0  0  0
   -9.9413   -0.8338   26.5835 C   0  0  0  0  0  0  0  0  0  0  0  0
  -10.8745   -1.2246   26.7919 C   0  0  0  0  0  0  0  0  0  0  0  0
  -11.3847   -2.5971   26.7216 C   0  0  0  0  0  0  0  0  0  0  0  0
  -10.4469   -3.4884   26.3277 C   0  0  0  0  0  0  0  0  0  0  0  0
   -9.0337   -2.0855   26.2617 C   0  0  1  0  0  0  0  0  0  0  0  0
   -9.2747   -3.2581   26.1021 C   0  0  0  0  0  0  0  0  0  0  0  0
   -8.0390   -4.2289   25.4632 Cl  0  0  0  0  0  0  0  0  0  0  0  0
  1  2  1  0
  6 13  1  0
 13 14  2  0
 14 15  1  0
 15 16  2  0
 13 17  1  0
 16 17  1  0
 17 18  1  6
 18 19  1  0
  1  3  2  0
  3 11  1  0
 11 12  2  0
 12 10  1  0
 10  9  2  0
  9  1  1  0
  2  4  2  0
  4  5  1  0
  5  6  2  0
  6  7  1  0
  7  8  2  0
  8  2  1  0
M  END
$$$$
