No_6307-complexes_sdf/6BKW-FPZ/2024-09-17-14-21-01/
     RDKit          3D

 18 19  0  0  0  0  0  0  0  0999 V2000
   -7.9040    3.9820   27.1177 C   0  0  0  0  0  0  0  0  0  0  0  0
   -9.0711    4.3164   27.0630 C   0  0  0  0  0  0  0  0  0  0  0  0
  -10.0395    3.8218   27.1938 C   0  0  0  0  0  0  0  0  0  0  0  0
   -7.6424    2.5858   27.3610 C   0  0  0  0  0  0  0  0  0  0  0  0
   -8.7741    1.7889   27.4566 C   0  0  0  0  0  0  0  0  0  0  0  0
  -10.0155    2.3581   27.4300 C   0  0  0  0  0  0  0  0  0  0  0  0
   -9.1463    5.9504   26.8742 C   0  0  0  0  0  0  0  0  0  0  0  0
   -7.9769    6.3056   27.1528 F   0  0  0  0  0  0  0  0  0  0  0  0
   -9.2918    6.2085   25.5277 F   0  0  0  0  0  0  0  0  0  0  0  0
   -9.8766    6.6299   27.6165 F   0  0  0  0  0  0  0  0  0  0  0  0
   -6.3201    1.9484   27.3564 C   0  0  0  0  0  0  0  0  0  0  0  0
   -5.8306    1.3527   28.1746 N   0  0  0  0  0  0  0  0  0  0  0  0
   -4.7443    0.5115   28.0987 C   0  0  0  0  0  0  0  0  0  0  0  0
   -3.9607    0.5246   29.1671 C   0  0  0  0  0  0  0  0  0  0  0  0
   -2.8086   -0.3583   29.2790 C   0  0  0  0  0  0  0  0  0  0  0  0
   -2.4331   -0.9694   28.1062 C   0  0  0  0  0  0  0  0  0  0  0  0
   -4.2952   -0.1599   27.0271 C   0  0  0  0  0  0  0  0  0  0  0  0
   -3.1950   -0.8930   26.9594 C   0  0  0  0  0  0  0  0  0  0  0  0
  2  7  1  0
  7  8  1  0
  7  9  1  0
  7 10  1  0
  4 11  1  0
 11 12  1  0
 12 13  1  0
  1  2  2  0
  2  3  1  0
  3  6  2  0
  6  5  1  0
  5  4  2  0
  4  1  1  0
 13 14  2  0
 14 15  1  0
 15 16  2  0
 16 18  1  0
 18 17  2  0
 17 13  1  0
M  END
$$$$
