No_6320-complexes_sdf/6BKW-FPZ/2024-09-17-14-21-01/
     RDKit          3D

 22 24  0  0  0  0  0  0  0  0999 V2000
   -7.7129    4.2099   27.0854 C   0  0  0  0  0  0  0  0  0  0  0  0
   -8.9133    4.4736   27.0998 C   0  0  0  0  0  0  0  0  0  0  0  0
   -9.4643    5.5426   27.7628 C   0  0  0  0  0  0  0  0  0  0  0  0
   -6.8373    4.9942   27.9785 C   0  0  0  0  0  0  0  0  0  0  0  0
   -7.3932    6.0303   28.6784 C   0  0  0  0  0  0  0  0  0  0  0  0
   -8.7122    6.3429   28.5485 C   0  0  0  0  0  0  0  0  0  0  0  0
   -9.7912    3.6118   26.1875 C   0  0  0  0  0  0  0  0  0  0  0  0
   -9.3147    2.6674   25.5408 C   0  0  0  0  0  0  0  0  0  0  0  0
  -10.0566    1.9472   24.5495 C   0  0  0  0  0  0  0  0  0  0  0  0
  -11.3539    2.4030   24.2943 C   0  0  0  0  0  0  0  0  0  0  0  0
  -11.8629    3.5004   24.9643 C   0  0  0  0  0  0  0  0  0  0  0  0
  -11.1016    4.1961   25.8751 C   0  0  0  0  0  0  0  0  0  0  0  0
   -9.5317    0.7602   23.8608 C   0  0  0  0  0  0  0  0  0  0  0  0
   -9.5980    0.6508   22.6377 N   0  0  0  0  0  0  0  0  0  0  0  0
   -9.6563    1.6403   21.8232 C   0  0  0  0  0  0  0  0  0  0  0  0
   -9.4598   -0.6367   21.9449 C   0  0  0  0  0  0  0  0  0  0  0  0
   -9.2067   -0.1866   24.6918 O   0  0  0  0  0  0  0  0  0  0  0  0
  -10.4368   -1.5507   22.0481 C   0  0  0  0  0  0  0  0  0  0  0  0
  -10.2860   -2.6603   21.5089 C   0  0  0  0  0  0  0  0  0  0  0  0
   -9.1333   -2.9965   20.6813 C   0  0  0  0  0  0  0  0  0  0  0  0
   -8.1123   -2.0648   20.5873 C   0  0  0  0  0  0  0  0  0  0  0  0
   -8.1993   -0.8592   21.2393 C   0  0  0  0  0  0  0  0  0  0  0  0
  2  7  1  0
  9 13  1  0
 13 14  1  0
 14 15  1  0
 14 16  1  0
 13 17  2  0
 16 18  2  0
 18 19  1  0
 19 20  2  0
 20 21  1  0
 21 22  2  0
 22 16  1  0
  1  2  2  0
  2  3  1  0
  3  6  2  0
  6  5  1  0
  5  4  2  0
  4  1  1  0
  7  8  2  0
  8  9  1  0
  9 10  2  0
 10 11  1  0
 11 12  2  0
 12  7  1  0
M  END
$$$$
