No_6808-complexes_sdf/6BKW-FPZ/2024-09-17-14-21-01/
     RDKit          3D

 34 38  0  0  0  0  0  0  0  0999 V2000
   -7.7129    4.2099   27.0854 C   0  0  0  0  0  0  0  0  0  0  0  0
   -7.7814    5.1722   27.8972 C   0  0  0  0  0  0  0  0  0  0  0  0
   -8.7889    3.2468   27.2220 C   0  0  2  0  0  0  0  0  0  0  0  0
   -8.5940    1.9755   26.6525 C   0  0  0  0  0  0  0  0  0  0  0  0
   -7.5537    1.2112   27.0910 C   0  0  0  0  0  0  0  0  0  0  0  0
   -8.6099    6.3007   27.4960 C   0  0  0  0  0  0  0  0  0  0  0  0
   -7.2926   -0.0816   26.6719 C   0  0  0  0  0  0  0  0  0  0  0  0
   -9.9960    5.8046   27.3395 C   0  0  0  0  0  0  0  0  0  0  0  0
  -10.0765    4.0957   26.6855 C   0  0  2  0  0  0  0  0  0  0  0  0
   -8.2132   -0.5987   25.7904 C   0  0  0  0  0  0  0  0  0  0  0  0
   -9.5219    1.2666   25.8275 C   0  0  0  0  0  0  0  0  0  0  0  0
  -10.7009    2.0493   25.4196 C   0  0  1  0  0  0  0  0  0  0  0  0
   -9.3271    0.0818   25.3466 C   0  0  0  0  0  0  0  0  0  0  0  0
  -11.0689    3.3868   26.3122 C   0  0  0  0  0  0  0  0  0  0  0  0
  -10.3852    2.6271   23.9450 C   0  0  0  0  0  0  0  0  0  0  0  0
  -11.9251    1.2504   25.3137 C   0  0  2  0  0  0  0  0  0  0  0  0
  -10.7913    2.0627   22.8887 C   0  0  0  0  0  0  0  0  0  0  0  0
  -12.8869    1.6007   24.9443 C   0  0  0  0  0  0  0  0  0  0  0  0
  -14.0021    0.8767   25.4390 C   0  0  0  0  0  0  0  0  0  0  0  0
  -13.6407   -0.2259   26.1125 C   0  0  0  0  0  0  0  0  0  0  0  0
  -12.1267    0.1641   26.2779 C   0  0  2  0  0  0  0  0  0  0  0  0
  -11.1146    2.6625   22.0131 C   0  0  0  0  0  0  0  0  0  0  0  0
  -10.7279    4.0464   21.8224 C   0  0  0  0  0  0  0  0  0  0  0  0
  -10.3978    4.7770   22.9603 C   0  0  0  0  0  0  0  0  0  0  0  0
  -10.2394    4.1109   24.0439 C   0  0  0  0  0  0  0  0  0  0  0  0
  -11.7226    0.3034   27.7371 C   0  0  0  0  0  0  0  0  0  0  0  0
  -10.9862   -0.7207   28.3949 C   0  0  0  0  0  0  0  0  0  0  0  0
  -12.9229    0.7199   28.5928 C   0  0  0  0  0  0  0  0  0  0  0  0
   -7.9764   -2.0029   25.2973 C   0  0  0  0  0  0  0  0  0  0  0  0
   -7.4595   -2.5629   24.6008 C   0  0  0  0  0  0  0  0  0  0  0  0
   -6.5349   -1.7192   23.7442 C   0  0  0  0  0  0  0  0  0  0  0  0
   -5.6631   -0.9965   24.3315 C   0  0  0  0  0  0  0  0  0  0  0  0
   -6.7057   -1.6814   22.2953 C   0  0  0  0  0  0  0  0  0  0  0  0
   -9.1606    3.0201   28.8358 C   0  0  0  0  0  0  0  0  0  0  0  0
  1  2  1  0
  1  3  1  0
  3  4  1  0
  2  6  1  0
  6  8  1  0
  3  9  1  0
  9  8  1  1
 11 12  1  0
  9 14  1  0
 12 14  1  0
 12 15  1  6
 12 16  1  0
 16 18  1  1
 18 19  2  0
 19 20  1  0
 16 21  1  0
 20 21  1  0
 21 26  1  1
 26 27  2  0
 26 28  1  0
 10 29  1  0
 29 30  1  0
 30 31  1  0
 31 32  1  0
 31 33  1  0
  3 34  1  1
 15 17  2  0
 17 22  1  0
 22 23  2  0
 23 24  1  0
 24 25  2  0
 25 15  1  0
  4  5  2  0
  5  7  1  0
  7 10  2  0
 10 13  1  0
 13 11  2  0
 11  4  1  0
M  END
$$$$
