No_6268-complexes_sdf/6BKW-FPZ/2024-09-17-14-21-01/
     RDKit          3D

 40 45  0  0  0  0  0  0  0  0999 V2000
   -7.9040    3.9820   27.1177 C   0  0  0  0  0  0  0  0  0  0  0  0
   -9.0711    4.3164   27.0630 C   0  0  0  0  0  0  0  0  0  0  0  0
   -9.5182    5.5541   27.5777 C   0  0  1  0  0  0  0  0  0  0  0  0
   -7.4468    2.6843   26.6499 C   0  0  0  0  0  0  0  0  0  0  0  0
   -8.3856    1.7878   26.2216 C   0  0  0  0  0  0  0  0  0  0  0  0
   -9.6812    2.2328   26.0889 C   0  0  0  0  0  0  0  0  0  0  0  0
  -10.0147    3.4312   26.5259 C   0  0  0  0  0  0  0  0  0  0  0  0
   -7.9132    0.4733   25.8127 C   0  0  0  0  0  0  0  0  0  0  0  0
   -7.2603   -0.3570   26.7388 C   0  0  0  0  0  0  0  0  0  0  0  0
   -6.8045   -1.6258   26.3954 C   0  0  0  0  0  0  0  0  0  0  0  0
   -7.1211   -2.0534   25.0953 C   0  0  0  0  0  0  0  0  0  0  0  0
   -8.1104   -0.2068   24.6336 C   0  0  0  0  0  0  0  0  0  0  0  0
   -7.6948   -1.3146   24.2039 C   0  0  0  0  0  0  0  0  0  0  0  0
   -8.7079    6.6191   27.5944 N   0  0  0  0  0  0  0  0  0  0  0  0
   -7.3754    6.4169   27.4488 C   0  0  0  0  0  0  0  0  0  0  0  0
   -6.9441    5.1223   27.3312 N   0  0  0  0  0  0  0  0  0  0  0  0
   -8.9075    0.8573   23.3643 Cl  0  0  0  0  0  0  0  0  0  0  0  0
  -10.8940    5.7845   27.6167 N   0  0  0  0  0  0  0  0  0  0  0  0
  -11.4310    3.6951   26.4329 C   0  0  0  0  0  0  0  0  0  0  0  0
  -11.8074    4.9355   27.1996 C   0  0  0  0  0  0  0  0  0  0  0  0
  -13.1051    4.8501   27.7025 C   0  0  0  0  0  0  0  0  0  0  0  0
  -13.5027    4.9092   29.0960 C   0  0  0  0  0  0  0  0  0  0  0  0
  -14.1716    4.9744   26.7380 C   0  0  0  0  0  0  0  0  0  0  0  0
  -14.8130    4.9463   29.5019 C   0  0  0  0  0  0  0  0  0  0  0  0
  -15.5378    5.1246   27.1714 C   0  0  0  0  0  0  0  0  0  0  0  0
  -15.8306    5.0943   28.5142 C   0  0  0  0  0  0  0  0  0  0  0  0
  -15.1300    4.9195   30.9312 C   0  0  0  0  0  0  0  0  0  0  0  0
  -15.8747    5.7210   31.4154 O   0  0  0  0  0  0  0  0  0  0  0  0
  -14.4391    4.0182   31.6987 N   0  0  0  0  0  0  0  0  0  0  0  0
  -14.5203    3.9906   33.1525 C   0  0  1  0  0  0  0  0  0  0  0  0
  -13.5002    4.4128   33.7722 C   0  0  0  0  0  0  0  0  0  0  0  0
  -13.2331    5.5565   34.3545 C   0  0  0  0  0  0  0  0  0  0  0  0
  -12.1122    5.8433   35.2161 C   0  0  0  0  0  0  0  0  0  0  0  0
  -11.1679    4.7737   35.4386 C   0  0  0  0  0  0  0  0  0  0  0  0
  -11.3761    3.5777   34.8626 C   0  0  0  0  0  0  0  0  0  0  0  0
  -12.5072    3.3331   34.1202 C   0  0  0  0  0  0  0  0  0  0  0  0
  -15.5602    4.8671   33.3197 F   0  0  0  0  0  0  0  0  0  0  0  0
  -15.0962    2.5870   33.4022 C   0  0  0  0  0  0  0  0  0  0  0  0
  -15.4178    2.2460   34.5548 C   0  0  0  0  0  0  0  0  0  0  0  0
  -15.7940    0.8665   34.8517 C   0  0  0  0  0  0  0  0  0  0  0  0
  1  2  1  0
  2  3  1  0
  1  4  2  0
  4  5  1  0
  5  6  2  0
  2  7  2  0
  6  7  1  0
  5  8  1  0
  8  9  2  0
  9 10  1  0
 10 11  2  0
  8 12  1  0
 11 13  1  0
 12 13  2  0
  3 14  1  6
 14 15  1  0
  1 16  1  0
 15 16  1  0
 12 17  1  0
  3 18  1  0
  7 19  1  0
 18 20  1  0
 19 20  2  0
 20 21  1  0
 21 22  2  0
 21 23  1  0
 22 24  1  0
 23 25  2  0
 24 26  2  0
 25 26  1  0
 24 27  1  0
 27 28  2  0
 27 29  1  0
 29 30  1  0
 30 31  1  0
 31 32  2  0
 32 33  1  0
 33 34  2  0
 34 35  1  0
 31 36  1  0
 35 36  2  0
 30 37  1  6
 30 38  1  0
 38 39  2  3
 39 40  1  0
M  END
$$$$
