No_6680-complexes_sdf/6BKW-FPZ/2024-09-17-14-21-01/
     RDKit          3D

 20 23  0  0  0  0  0  0  0  0999 V2000
   -7.9040    3.9820   27.1177 C   0  0  0  0  0  0  0  0  0  0  0  0
   -7.8663    4.8694   27.9238 C   0  0  0  0  0  0  0  0  0  0  0  0
   -9.0953    3.1697   27.0532 C   0  0  0  0  0  0  0  0  0  0  0  0
  -10.1313    3.4052   27.8871 C   0  0  0  0  0  0  0  0  0  0  0  0
   -8.9489    5.3814   28.6671 C   0  0  0  0  0  0  0  0  0  0  0  0
  -10.1039    4.5714   28.7102 C   0  0  0  0  0  0  0  0  0  0  0  0
   -9.0505    1.9437   26.1963 C   0  0  0  0  0  0  0  0  0  0  0  0
   -8.3625    0.8150   26.4195 C   0  0  0  0  0  0  0  0  0  0  0  0
   -8.3440   -0.2455   25.5435 C   0  0  0  0  0  0  0  0  0  0  0  0
   -9.7341    2.0949   24.9641 C   0  0  0  0  0  0  0  0  0  0  0  0
   -9.6767    1.0740   24.0040 C   0  0  0  0  0  0  0  0  0  0  0  0
  -10.3387    1.1973   22.7480 C   0  0  0  0  0  0  0  0  0  0  0  0
   -8.9565   -0.0899   24.2845 C   0  0  0  0  0  0  0  0  0  0  0  0
  -10.4007    2.4395   22.2166 C   0  0  0  0  0  0  0  0  0  0  0  0
  -10.9806    2.6842   20.9474 C   0  0  0  0  0  0  0  0  0  0  0  0
  -10.9973    4.0103   20.3887 C   0  0  0  0  0  0  0  0  0  0  0  0
  -10.5535    5.0880   21.1865 C   0  0  0  0  0  0  0  0  0  0  0  0
  -10.2082    4.8320   22.5417 C   0  0  0  0  0  0  0  0  0  0  0  0
  -10.1399    3.6400   23.0520 C   0  0  0  0  0  0  0  0  0  0  0  0
   -9.7815    3.3822   24.4168 N   0  0  0  0  0  0  0  0  0  0  0  0
  3  7  1  0
 14 15  2  0
 15 16  1  0
 16 17  2  0
 17 18  1  0
 18 19  2  0
 11 12  2  0
 12 14  1  0
 14 19  1  0
 19 20  1  0
 20 10  2  0
  1  2  2  0
  2  5  1  0
  5  6  2  0
  6  4  1  0
  4  3  2  0
  3  1  1  0
  7  8  2  0
  8  9  1  0
  9 13  2  0
 13 11  1  0
 11 10  1  0
 10  7  1  0
M  END
$$$$
