No_6063-complexes_sdf/6BKW-FPZ/2024-09-17-14-21-01/
     RDKit          3D

 13 13  0  0  0  0  0  0  0  0999 V2000
   -7.7129    4.2099   27.0854 C   0  0  0  0  0  0  0  0  0  0  0  0
   -8.2112    3.0637   26.9225 C   0  0  0  0  0  0  0  0  0  0  0  0
   -9.4446    2.8304   26.1868 C   0  0  0  0  0  0  0  0  0  0  0  0
   -8.4697    5.3956   26.7238 C   0  0  0  0  0  0  0  0  0  0  0  0
   -9.6172    5.2111   25.9513 C   0  0  0  0  0  0  0  0  0  0  0  0
  -10.0424    3.9782   25.6873 C   0  0  0  0  0  0  0  0  0  0  0  0
   -8.1318    6.7643   27.0481 C   0  0  0  0  0  0  0  0  0  0  0  0
   -7.2134    6.8745   27.9555 N   0  0  0  0  0  0  0  0  0  0  0  0
   -8.6406    7.7402   26.5578 F   0  0  0  0  0  0  0  0  0  0  0  0
   -7.3545    1.6241   27.4759 Cl  0  0  0  0  0  0  0  0  0  0  0  0
  -11.2649    3.8270   24.8565 C   0  0  0  0  0  0  0  0  0  0  0  0
  -12.4786    3.4276   25.4005 C   0  0  0  0  0  0  0  0  0  0  0  0
  -13.6014    3.3418   24.5880 C   0  0  0  0  0  0  0  0  0  0  0  0
  4  7  1  0
  7  8  1  0
  7  9  1  0
  2 10  1  0
  6 11  1  0
 11 12  2  3
 12 13  1  0
  1  2  2  0
  2  3  1  0
  3  6  2  0
  6  5  1  0
  5  4  2  0
  4  1  1  0
M  END
$$$$
