No_6253-complexes_sdf/6BKW-FPZ/2024-09-17-14-21-01/
     RDKit          3D

 24 26  0  0  0  0  0  0  0  0999 V2000
   -7.2496    3.8871   27.4508 C   0  0  0  0  0  0  0  0  0  0  0  0
   -8.5096    4.0291   27.2770 C   0  0  0  0  0  0  0  0  0  0  0  0
   -9.2669    5.1645   27.5845 C   0  0  0  0  0  0  0  0  0  0  0  0
   -8.4566    6.3212   27.8001 C   0  0  0  0  0  0  0  0  0  0  0  0
   -6.4921    5.0197   27.7961 C   0  0  0  0  0  0  0  0  0  0  0  0
   -7.1702    6.2351   27.9936 C   0  0  0  0  0  0  0  0  0  0  0  0
   -9.1769    2.6371   27.0166 C   0  0  0  0  0  0  0  0  0  0  0  0
   -8.5548    1.5915   26.7676 C   0  0  0  0  0  0  0  0  0  0  0  0
   -7.1221    1.5876   27.1190 C   0  0  0  0  0  0  0  0  0  0  0  0
   -6.4982    2.6715   27.4212 C   0  0  0  0  0  0  0  0  0  0  0  0
   -6.4110    0.2533   26.9851 C   0  0  0  0  0  0  0  0  0  0  0  0
   -6.5999   -0.4650   27.7405 O   0  0  0  0  0  0  0  0  0  0  0  0
   -5.5396    0.1570   26.0661 O   0  0  0  0  0  0  0  0  0  0  0  0
  -10.6973    5.2630   27.4044 C   0  0  0  0  0  0  0  0  0  0  0  0
  -11.3932    4.3305   28.2433 C   0  0  0  0  0  0  0  0  0  0  0  0
  -12.4681    3.7345   27.8945 C   0  0  0  0  0  0  0  0  0  0  0  0
  -13.1607    2.7986   28.8099 C   0  0  0  0  0  0  0  0  0  0  0  0
  -14.2210    2.0223   28.4722 C   0  0  0  0  0  0  0  0  0  0  0  0
  -14.7926    2.2548   27.2058 C   0  0  0  0  0  0  0  0  0  0  0  0
  -14.2692    3.1777   26.3554 C   0  0  0  0  0  0  0  0  0  0  0  0
  -13.1366    3.9237   26.6461 C   0  0  0  0  0  0  0  0  0  0  0  0
  -15.9434    1.5648   26.8260 N   0  0  0  0  0  0  0  0  0  0  0  0
  -16.5305    1.4896   25.8806 C   0  0  0  0  0  0  0  0  0  0  0  0
  -16.2858    2.1024   24.8803 O   0  0  0  0  0  0  0  0  0  0  0  0
  9 11  1  0
 11 12  2  0
 11 13  1  0
  3 14  1  0
 14 15  1  0
 19 22  1  0
 22 23  2  0
 23 24  2  0
 15 16  1  0
  2  7  2  0
  7  8  1  0
  8  9  2  0
  9 10  1  0
 10  1  2  0
  1  2  1  0
  2  3  1  0
  3  4  2  0
  4  6  1  0
  6  5  2  0
  5  1  1  0
 16 17  2  0
 17 18  1  0
 18 19  2  0
 19 20  1  0
 20 21  2  0
 21 16  1  0
M  END
$$$$
