No_6323-complexes_sdf/6BKW-FPZ/2024-09-17-14-21-01/
     RDKit          3D

 11 11  0  0  0  0  0  0  0  0999 V2000
   -7.7129    4.2099   27.0854 C   0  0  0  0  0  0  0  0  0  0  0  0
   -7.7814    5.1722   27.8972 C   0  0  0  0  0  0  0  0  0  0  0  0
   -8.7889    3.2468   27.2220 C   0  0  0  0  0  0  0  0  0  0  0  0
   -8.5940    1.9755   26.6525 C   0  0  0  0  0  0  0  0  0  0  0  0
   -8.9923    5.7768   28.3797 C   0  0  0  0  0  0  0  0  0  0  0  0
  -10.1236    4.9428   28.2368 C   0  0  0  0  0  0  0  0  0  0  0  0
   -9.9991    3.6962   27.6536 C   0  0  0  0  0  0  0  0  0  0  0  0
   -7.4804    1.2348   26.9412 C   0  0  0  0  0  0  0  0  0  0  0  0
   -6.5344    1.6629   27.9314 C   0  0  0  0  0  0  0  0  0  0  0  0
   -5.3889    0.8098   28.1926 C   0  0  0  0  0  0  0  0  0  0  0  0
   -5.3559   -0.4472   27.6672 C   0  0  0  0  0  0  0  0  0  0  0  0
  4  8  1  0
  8  9  1  0
  9 10  2  3
 10 11  1  0
  4  3  1  0
  1  2  2  0
  2  5  1  0
  5  6  2  0
  6  7  1  0
  7  3  2  0
  3  1  1  0
M  END
$$$$
