No_6428-complexes_sdf/6BKW-FPZ/2024-09-17-14-21-01/
     RDKit          3D

 34 36  0  0  0  0  0  0  0  0999 V2000
   -7.7129    4.2099   27.0854 C   0  0  0  0  0  0  0  0  0  0  0  0
   -8.2112    3.0637   26.9225 C   0  0  0  0  0  0  0  0  0  0  0  0
   -8.5108    5.3904   26.9436 C   0  0  0  0  0  0  0  0  0  0  0  0
   -9.7256    5.1955   26.3518 C   0  0  0  0  0  0  0  0  0  0  0  0
   -9.4995    2.8258   26.4878 C   0  0  0  0  0  0  0  0  0  0  0  0
  -10.2542    3.9691   26.2055 C   0  0  0  0  0  0  0  0  0  0  0  0
   -7.9168    6.7086   27.1908 C   0  0  0  0  0  0  0  0  0  0  0  0
   -7.3556    1.8215   27.2519 C   0  0  0  0  0  0  0  0  0  0  0  0
   -6.1221    2.0157   27.6958 N   0  0  0  0  0  0  0  0  0  0  0  0
   -5.3776    0.8624   28.0170 C   0  0  0  0  0  0  0  0  0  0  0  0
   -5.9744   -0.3346   27.9165 C   0  0  0  0  0  0  0  0  0  0  0  0
   -7.9221    0.5782   27.1726 N   0  0  0  0  0  0  0  0  0  0  0  0
   -7.2297   -0.4711   27.5606 C   0  0  0  0  0  0  0  0  0  0  0  0
   -4.0904    1.1192   28.4509 N   0  0  0  0  0  0  0  0  0  0  0  0
   -8.0497    7.8176   26.7353 N   0  0  0  0  0  0  0  0  0  0  0  0
   -6.9382    6.6189   28.1954 O   0  0  0  0  0  0  0  0  0  0  0  0
  -11.5870    3.8115   25.5901 C   0  0  0  0  0  0  0  0  0  0  0  0
  -11.8875    4.1927   24.4865 O   0  0  0  0  0  0  0  0  0  0  0  0
  -12.5489    3.1280   26.2987 N   0  0  0  0  0  0  0  0  0  0  0  0
  -13.8849    2.9930   25.8229 C   0  0  0  0  0  0  0  0  0  0  0  0
  -14.1002    2.0768   24.8018 C   0  0  0  0  0  0  0  0  0  0  0  0
  -13.3962    0.9245   24.8288 C   0  0  1  0  0  0  0  0  0  0  0  0
  -13.5571    0.0666   25.8335 C   0  0  0  0  0  0  0  0  0  0  0  0
  -14.4150   -0.2545   26.4997 C   0  0  0  0  0  0  0  0  0  0  0  0
  -14.3989   -1.2561   27.6163 C   0  0  0  0  0  0  0  0  0  0  0  0
  -13.1547   -1.8221   27.9132 C   0  0  0  0  0  0  0  0  0  0  0  0
  -12.0248   -1.4904   27.1697 C   0  0  0  0  0  0  0  0  0  0  0  0
  -12.1207   -0.5931   26.1998 C   0  0  0  0  0  0  0  0  0  0  0  0
  -12.5483    0.6177   23.6951 C   0  0  0  0  0  0  0  0  0  0  0  0
  -12.9301    0.0666   22.6509 C   0  0  0  0  0  0  0  0  0  0  0  0
  -12.0526   -0.3044   21.6216 C   0  0  0  0  0  0  0  0  0  0  0  0
  -10.6921    0.0387   21.7249 C   0  0  0  0  0  0  0  0  0  0  0  0
  -10.2256    0.7440   22.8577 C   0  0  0  0  0  0  0  0  0  0  0  0
  -11.0888    1.0025   23.8329 C   0  0  0  0  0  0  0  0  0  0  0  0
  3  7  1  0
  2  8  1  0
 10 14  1  0
  7 15  2  0
  7 16  1  0
  6 17  1  0
 17 18  2  0
 17 19  1  0
 19 20  1  0
 20 21  1  0
 22 21  1  6
 22 23  1  0
 22 29  1  0
 29 30  2  3
 30 31  1  0
 31 32  2  3
 32 33  1  0
 33 34  1  0
 23 24  2  0
 24 25  1  0
 25 26  2  0
 26 27  1  0
 27 28  2  0
 28 23  1  0
  1  2  2  0
  2  5  1  0
  5  6  2  0
  6  4  1  0
  4  3  2  0
  3  1  1  0
  8  9  2  0
  9 10  1  0
 10 11  2  0
 11 13  1  0
 13 12  2  0
 12  8  1  0
M  END
$$$$
