No_685-complexes_sdf/6BKW-FPZ/2024-09-17-14-21-01/
     RDKit          3D

 22 24  0  0  0  0  0  0  0  0999 V2000
   -7.9040    3.9820   27.1177 C   0  0  0  0  0  0  0  0  0  0  0  0
   -9.0711    4.3164   27.0630 C   0  0  0  0  0  0  0  0  0  0  0  0
   -9.5294    5.4517   27.7215 C   0  0  0  0  0  0  0  0  0  0  0  0
   -7.4336    2.7132   26.5681 C   0  0  0  0  0  0  0  0  0  0  0  0
   -6.3310    2.0536   27.2853 C   0  0  0  0  0  0  0  0  0  0  0  0
   -6.0697    0.7257   27.2175 C   0  0  0  0  0  0  0  0  0  0  0  0
   -6.9376   -0.0097   26.4117 C   0  0  0  0  0  0  0  0  0  0  0  0
   -8.2985    1.7634   26.0487 C   0  0  0  0  0  0  0  0  0  0  0  0
   -8.0763    0.5190   25.9012 C   0  0  0  0  0  0  0  0  0  0  0  0
   -7.0271    4.8606   27.8657 C   0  0  0  0  0  0  0  0  0  0  0  0
   -7.3953    6.0064   28.4553 C   0  0  0  0  0  0  0  0  0  0  0  0
   -8.7248    6.3543   28.2935 C   0  0  0  0  0  0  0  0  0  0  0  0
   -4.8971    0.1570   27.8797 C   0  0  0  0  0  0  0  0  0  0  0  0
   -5.1272   -0.7017   28.5512 F   0  0  0  0  0  0  0  0  0  0  0  0
   -4.3241    1.2240   28.6789 F   0  0  0  0  0  0  0  0  0  0  0  0
   -3.8597   -0.1580   26.8083 C   0  0  0  0  0  0  0  0  0  0  0  0
   -3.9085   -1.3301   26.2133 C   0  0  0  0  0  0  0  0  0  0  0  0
   -2.8760   -1.7504   25.4287 C   0  0  0  0  0  0  0  0  0  0  0  0
   -1.5892   -1.1390   25.7232 C   0  0  0  0  0  0  0  0  0  0  0  0
   -1.5277   -0.0416   26.5089 C   0  0  0  0  0  0  0  0  0  0  0  0
   -2.6111    0.5171   27.1525 C   0  0  0  0  0  0  0  0  0  0  0  0
   -9.4496    2.2394   25.4724 F   0  0  0  0  0  0  0  0  0  0  0  0
  1  4  1  0
  6 13  1  0
 13 14  1  0
 13 15  1  0
 13 16  1  0
  8 22  1  0
  4  5  2  0
  5  6  1  0
  6  7  2  0
  7  9  1  0
  9  8  2  0
  8  4  1  0
  1  2  2  0
  2  3  1  0
  3 12  2  0
 12 11  1  0
 11 10  2  0
 10  1  1  0
 16 17  2  0
 17 18  1  0
 18 19  2  0
 19 20  1  0
 20 21  2  0
 21 16  1  0
M  END
$$$$
