No_683-complexes_sdf/6BKW-FPZ/2024-09-17-14-21-01/
     RDKit          3D

 21 23  0  0  0  0  0  0  0  0999 V2000
   -7.9040    3.9820   27.1177 C   0  0  0  0  0  0  0  0  0  0  0  0
   -9.0711    4.3164   27.0630 C   0  0  0  0  0  0  0  0  0  0  0  0
   -9.8698    3.9665   25.9495 C   0  0  0  0  0  0  0  0  0  0  0  0
   -7.4087    3.0336   26.9775 C   0  0  0  0  0  0  0  0  0  0  0  0
   -8.2557    2.0366   26.1319 C   0  0  0  0  0  0  0  0  0  0  0  0
   -9.4315    2.6210   25.6674 C   0  0  0  0  0  0  0  0  0  0  0  0
   -7.1307    4.8059   28.1084 F   0  0  0  0  0  0  0  0  0  0  0  0
  -10.2589    1.8499   24.6694 C   0  0  0  0  0  0  0  0  0  0  0  0
  -10.5678    2.3711   23.5223 C   0  0  0  0  0  0  0  0  0  0  0  0
  -10.6442    3.7282   23.3188 C   0  0  0  0  0  0  0  0  0  0  0  0
  -11.1131    4.3652   22.2135 C   0  0  0  0  0  0  0  0  0  0  0  0
  -11.2016    3.6141   21.0497 C   0  0  0  0  0  0  0  0  0  0  0  0
  -11.0516    2.2038   21.1284 C   0  0  0  0  0  0  0  0  0  0  0  0
  -10.7357    1.6628   22.2943 C   0  0  0  0  0  0  0  0  0  0  0  0
   -9.5589    0.4426   24.4489 C   0  0  0  0  0  0  0  0  0  0  0  0
  -11.6416    1.6674   25.4337 C   0  0  0  0  0  0  0  0  0  0  0  0
  -12.2553    2.3921   25.9735 C   0  0  0  0  0  0  0  0  0  0  0  0
  -13.5431    2.1618   26.5751 C   0  0  0  0  0  0  0  0  0  0  0  0
  -11.8783    0.1909   25.7382 C   0  0  0  0  0  0  0  0  0  0  0  0
  -13.0927   -0.1095   26.2971 C   0  0  0  0  0  0  0  0  0  0  0  0
  -13.9041    0.8948   26.7864 C   0  0  0  0  0  0  0  0  0  0  0  0
  1  7  1  0
  6  8  1  0
  8  9  1  0
  8 15  1  0
  8 16  1  0
  1  2  2  0
  2  3  1  0
  3  6  2  0
  6  5  1  0
  5  4  2  0
  4  1  1  0
 16 17  2  0
 17 18  1  0
 18 21  2  0
 21 20  1  0
 20 19  2  0
 19 16  1  0
  9 10  2  0
 10 11  1  0
 11 12  2  0
 12 13  1  0
 13 14  2  0
 14  9  1  0
M  END
$$$$
