No_6818-complexes_sdf/6BKW-FPZ/2024-09-17-14-21-01/
     RDKit          3D

 23 26  0  0  0  0  0  0  0  0999 V2000
   -7.2496    3.8871   27.4508 C   0  0  0  0  0  0  0  0  0  0  0  0
   -8.5096    4.0291   27.2770 C   0  0  0  0  0  0  0  0  0  0  0  0
   -9.2677    5.1714   27.5773 C   0  0  0  0  0  0  0  0  0  0  0  0
   -9.2765    2.8248   26.8371 C   0  0  0  0  0  0  0  0  0  0  0  0
  -10.4623    3.0171   26.3237 C   0  0  0  0  0  0  0  0  0  0  0  0
  -10.8972    2.6250   25.3350 C   0  0  1  0  0  0  0  0  0  0  0  0
  -11.3836    2.9387   24.4653 C   0  0  0  0  0  0  0  0  0  0  0  0
  -10.6010    5.3194   27.2422 C   0  0  0  0  0  0  0  0  0  0  0  0
  -11.1099    4.3834   26.5399 C   0  0  0  0  0  0  0  0  0  0  0  0
  -11.8570    2.2125   23.2416 C   0  0  0  0  0  0  0  0  0  0  0  0
   -6.5654    2.7760   27.3397 F   0  0  0  0  0  0  0  0  0  0  0  0
  -11.3881    0.9386   23.2653 C   0  0  0  0  0  0  0  0  0  0  0  0
  -10.4306    1.0987   24.9258 C   0  0  2  0  0  0  0  0  0  0  0  0
   -6.5479    4.9264   27.9452 F   0  0  0  0  0  0  0  0  0  0  0  0
  -11.3175   -0.1975   22.7295 C   0  0  0  0  0  0  0  0  0  0  0  0
  -11.6074   -0.3179   21.6023 C   0  0  0  0  0  0  0  0  0  0  0  0
  -11.5300   -1.6094   20.8065 C   0  0  0  0  0  0  0  0  0  0  0  0
  -11.0066   -2.6523   21.4829 C   0  0  0  0  0  0  0  0  0  0  0  0
  -10.5967   -2.5426   22.7497 C   0  0  0  0  0  0  0  0  0  0  0  0
  -10.6486   -1.3440   23.4368 C   0  0  0  0  0  0  0  0  0  0  0  0
   -9.7483    0.1757   25.5393 C   0  0  0  0  0  0  0  0  0  0  0  0
   -9.6751   -0.7758   25.1945 C   0  0  0  0  0  0  0  0  0  0  0  0
   -9.7956   -1.5550   24.7000 N   0  0  0  0  0  0  0  0  0  0  0  0
  1  2  1  0
  6  7  1  0
  7 10  2  0
  1 11  1  0
 10 12  1  0
  6 13  1  0
 12 13  1  0
  1 14  1  0
 12 15  1  0
 13 21  1  1
 21 22  2  0
 20 23  1  0
 22 23  2  0
  6  5  1  6
 15 16  2  0
 16 17  1  0
 17 18  2  0
 18 19  1  0
 19 20  2  0
 20 15  1  0
  2  3  2  0
  3  8  1  0
  8  9  2  0
  9  5  1  0
  5  4  2  0
  4  2  1  0
M  END
$$$$
