No_6205-complexes_sdf/6BKW-FPZ/2024-09-17-14-21-01/
     RDKit          3D

 13 14  0  0  0  0  0  0  0  0999 V2000
   -7.7129    4.2099   27.0854 C   0  0  0  0  0  0  0  0  0  0  0  0
   -7.7814    5.1722   27.8972 C   0  0  0  0  0  0  0  0  0  0  0  0
   -8.8998    3.8713   26.3707 C   0  0  0  0  0  0  0  0  0  0  0  0
   -9.9938    4.6774   26.5446 C   0  0  0  0  0  0  0  0  0  0  0  0
   -8.7789    6.1536   27.9256 C   0  0  0  0  0  0  0  0  0  0  0  0
   -9.9428    5.8398   27.2296 C   0  0  0  0  0  0  0  0  0  0  0  0
   -8.7183    2.6009   25.5951 C   0  0  0  0  0  0  0  0  0  0  0  0
   -8.3834    1.4477   26.3082 C   0  0  0  0  0  0  0  0  0  0  0  0
   -8.2972    0.2333   25.6465 C   0  0  0  0  0  0  0  0  0  0  0  0
   -7.7143   -0.8190   26.3492 C   0  0  0  0  0  0  0  0  0  0  0  0
   -7.2993   -0.6985   27.6921 C   0  0  0  0  0  0  0  0  0  0  0  0
   -7.3308    0.5647   28.2630 C   0  0  0  0  0  0  0  0  0  0  0  0
   -7.7619    1.6221   27.6527 C   0  0  0  0  0  0  0  0  0  0  0  0
  3  7  1  0
  7  8  1  0
  8  9  2  0
  9 10  1  0
 10 11  2  0
 11 12  1  0
 12 13  2  0
 13  8  1  0
  1  2  2  0
  2  5  1  0
  5  6  2  0
  6  4  1  0
  4  3  2  0
  3  1  1  0
M  END
$$$$
