No_6039-complexes_sdf/6BKW-FPZ/2024-09-17-14-21-01/
     RDKit          3D

 12 13  0  0  0  0  0  0  0  0999 V2000
   -7.7129    4.2099   27.0854 C   0  0  0  0  0  0  0  0  0  0  0  0
   -7.7814    5.1722   27.8972 C   0  0  0  0  0  0  0  0  0  0  0  0
   -8.7889    3.2468   27.2220 C   0  0  0  0  0  0  0  0  0  0  0  0
   -9.8671    3.4455   28.0317 C   0  0  0  0  0  0  0  0  0  0  0  0
   -8.9592    5.6476   28.6200 C   0  0  0  0  0  0  0  0  0  0  0  0
   -9.9658    4.7049   28.7257 C   0  0  0  0  0  0  0  0  0  0  0  0
   -8.6765    1.9196   26.5405 C   0  0  0  0  0  0  0  0  0  0  0  0
   -9.5491    1.4815   25.7343 C   0  0  0  0  0  0  0  0  0  0  0  0
   -9.3366    0.4575   24.8796 C   0  0  0  0  0  0  0  0  0  0  0  0
   -8.1473   -0.2923   25.0436 C   0  0  0  0  0  0  0  0  0  0  0  0
   -7.2037    0.0646   25.9674 C   0  0  0  0  0  0  0  0  0  0  0  0
   -7.3731    1.2438   26.7488 C   0  0  0  0  0  0  0  0  0  0  0  0
  3  7  1  0
  1  2  2  0
  2  5  1  0
  5  6  2  0
  6  4  1  0
  4  3  2  0
  3  1  1  0
  7  8  2  0
  8  9  1  0
  9 10  2  0
 10 11  1  0
 11 12  2  0
 12  7  1  0
M  END
$$$$
