No_6434-complexes_sdf/6BKW-FPZ/2024-09-17-14-21-01/
     RDKit          3D

 21 23  0  0  0  0  0  0  0  0999 V2000
   -7.2496    3.8871   27.4508 C   0  0  0  0  0  0  0  0  0  0  0  0
   -7.6161    2.7143   27.1523 C   0  0  0  0  0  0  0  0  0  0  0  0
   -8.6212    2.2239   26.4073 C   0  0  0  0  0  0  0  0  0  0  0  0
   -8.2540    4.9237   27.1711 C   0  0  0  0  0  0  0  0  0  0  0  0
   -8.0481    6.2918   27.4896 C   0  0  0  0  0  0  0  0  0  0  0  0
   -9.5812    3.2431   26.0960 C   0  0  0  0  0  0  0  0  0  0  0  0
   -9.3651    4.5697   26.4537 C   0  0  0  0  0  0  0  0  0  0  0  0
   -8.9363    7.2465   27.1225 N   0  0  0  0  0  0  0  0  0  0  0  0
   -8.8397    0.8560   26.0903 C   0  0  0  0  0  0  0  0  0  0  0  0
   -8.4574    0.4460   24.9109 C   0  0  0  0  0  0  0  0  0  0  0  0
   -8.2850   -0.8333   24.5027 C   0  0  0  0  0  0  0  0  0  0  0  0
   -8.6333   -1.8241   25.4629 C   0  0  0  0  0  0  0  0  0  0  0  0
   -8.9708   -0.1252   27.1052 C   0  0  0  0  0  0  0  0  0  0  0  0
   -8.9435   -1.4714   26.8372 C   0  0  0  0  0  0  0  0  0  0  0  0
   -6.9328    6.6221   28.0911 O   0  0  0  0  0  0  0  0  0  0  0  0
  -10.7185    2.8846   25.2406 C   0  0  0  0  0  0  0  0  0  0  0  0
  -11.8882    2.8242   25.8773 C   0  0  0  0  0  0  0  0  0  0  0  0
  -13.0599    2.4872   25.1836 C   0  0  0  0  0  0  0  0  0  0  0  0
  -10.6387    2.8325   23.8962 C   0  0  0  0  0  0  0  0  0  0  0  0
  -11.6881    2.5880   23.0951 C   0  0  0  0  0  0  0  0  0  0  0  0
  -12.9408    2.4219   23.7869 C   0  0  0  0  0  0  0  0  0  0  0  0
  4  5  1  0
  5  8  1  0
  3  9  1  0
  5 15  2  0
  6 16  1  0
  1  2  2  0
  2  3  1  0
  3  6  2  0
  6  7  1  0
  7  4  2  0
  4  1  1  0
 16 17  2  0
 17 18  1  0
 18 21  2  0
 21 20  1  0
 20 19  2  0
 19 16  1  0
  9 10  2  0
 10 11  1  0
 11 12  2  0
 12 14  1  0
 14 13  2  0
 13  9  1  0
M  END
$$$$
