No_6222-complexes_sdf/6BKW-FPZ/2024-09-17-14-21-01/
     RDKit          3D

 19 21  0  0  0  0  0  0  0  0999 V2000
   -7.9040    3.9820   27.1177 C   0  0  0  0  0  0  0  0  0  0  0  0
   -7.8663    4.8694   27.9238 C   0  0  0  0  0  0  0  0  0  0  0  0
   -9.0491    3.8523   26.2542 C   0  0  0  0  0  0  0  0  0  0  0  0
   -9.4067    2.6808   25.6532 C   0  0  0  0  0  0  0  0  0  0  0  0
   -8.5275    6.1191   27.7061 C   0  0  0  0  0  0  0  0  0  0  0  0
   -8.8735    1.4981   26.1333 C   0  0  0  0  0  0  0  0  0  0  0  0
   -7.7350    1.5405   27.0386 C   0  0  0  0  0  0  0  0  0  0  0  0
   -7.3982    2.6877   27.6090 C   0  0  0  0  0  0  0  0  0  0  0  0
   -9.4905    6.2573   26.6237 C   0  0  0  0  0  0  0  0  0  0  0  0
   -9.7361    5.0739   25.9128 C   0  0  0  0  0  0  0  0  0  0  0  0
   -7.1059    0.2626   27.4221 C   0  0  0  0  0  0  0  0  0  0  0  0
   -6.3000   -0.2567   26.7937 C   0  0  0  0  0  0  0  0  0  0  0  0
   -5.4696   -1.3067   27.2986 C   0  0  0  0  0  0  0  0  0  0  0  0
   -5.6148   -1.7599   28.5771 C   0  0  0  0  0  0  0  0  0  0  0  0
   -6.6536   -1.2033   29.3584 C   0  0  0  0  0  0  0  0  0  0  0  0
   -7.3523   -0.1941   28.8173 C   0  0  0  0  0  0  0  0  0  0  0  0
  -10.3641    2.5838   24.5926 C   0  0  0  0  0  0  0  0  0  0  0  0
  -11.4455    3.1326   24.5406 C   0  0  0  0  0  0  0  0  0  0  0  0
  -12.3797    3.0678   23.4562 C   0  0  0  0  0  0  0  0  0  0  0  0
  7 11  1  0
  4 17  1  0
 17 18  2  3
 18 19  1  0
 11 12  2  0
 12 13  1  0
 13 14  2  0
 14 15  1  0
 15 16  2  0
 16 11  1  0
  3  4  1  0
  4  6  2  0
  6  7  1  0
  7  8  2  0
  8  1  1  0
  1  2  2  0
  2  5  1  0
  5  9  2  0
  9 10  1  0
 10  3  2  0
  3  1  1  0
M  END
$$$$
