No_6140-complexes_sdf/6BKW-FPZ/2024-09-17-14-21-01/
     RDKit          3D

 26 29  0  0  0  0  0  0  0  0999 V2000
   -7.7129    4.2099   27.0854 C   0  0  0  0  0  0  0  0  0  0  0  0
   -8.2112    3.0637   26.9225 C   0  0  0  0  0  0  0  0  0  0  0  0
   -8.5108    5.3904   26.9436 C   0  0  0  0  0  0  0  0  0  0  0  0
   -9.7256    5.1955   26.3518 C   0  0  0  0  0  0  0  0  0  0  0  0
   -9.4995    2.8258   26.4878 C   0  0  0  0  0  0  0  0  0  0  0  0
  -10.2542    3.9691   26.2055 C   0  0  0  0  0  0  0  0  0  0  0  0
   -7.8138    6.9227   27.2348 Cl  0  0  0  0  0  0  0  0  0  0  0  0
   -7.3640    1.8353   27.2492 C   0  0  0  0  0  0  0  0  0  0  0  0
   -6.0673    2.0156   27.7743 C   0  0  0  0  0  0  0  0  0  0  0  0
   -5.2748    0.8508   28.0549 C   0  0  0  0  0  0  0  0  0  0  0  0
   -5.8355   -0.3853   27.8835 C   0  0  0  0  0  0  0  0  0  0  0  0
   -7.7798    0.5160   27.1261 C   0  0  0  0  0  0  0  0  0  0  0  0
   -7.1220   -0.5165   27.4794 C   0  0  0  0  0  0  0  0  0  0  0  0
   -4.0412    1.0837   28.5153 F   0  0  0  0  0  0  0  0  0  0  0  0
  -11.5959    3.8221   25.6291 C   0  0  0  0  0  0  0  0  0  0  0  0
  -12.6652    3.8314   26.4749 C   0  0  0  0  0  0  0  0  0  0  0  0
  -13.9948    3.7237   25.9977 C   0  0  0  0  0  0  0  0  0  0  0  0
  -14.1641    3.6175   24.6149 C   0  0  0  0  0  0  0  0  0  0  0  0
  -11.8625    3.6681   24.2413 C   0  0  0  0  0  0  0  0  0  0  0  0
  -10.6567    3.6238   23.3534 C   0  0  0  0  0  0  0  0  0  0  0  0
  -13.1017    3.6000   23.7141 C   0  0  0  0  0  0  0  0  0  0  0  0
  -10.7134    3.9460   22.0912 C   0  0  0  0  0  0  0  0  0  0  0  0
   -9.5776    3.8301   21.3125 C   0  0  0  0  0  0  0  0  0  0  0  0
  -11.8824    4.5947   21.5433 C   0  0  0  0  0  0  0  0  0  0  0  0
  -13.2893    4.0351   22.3261 C   0  0  0  0  0  0  0  0  0  0  0  0
  -12.4566    3.9043   27.7993 F   0  0  0  0  0  0  0  0  0  0  0  0
  3  7  1  0
  2  8  1  0
 10 14  1  0
  6 15  1  0
 22 23  1  0
 16 26  1  0
 15 16  2  0
 16 17  1  0
 17 18  2  0
 18 21  1  0
 19 15  1  0
  1  2  2  0
  2  5  1  0
  5  6  2  0
  6  4  1  0
  4  3  2  0
  3  1  1  0
 19 20  2  0
 20 22  1  0
 22 24  2  0
 24 25  1  0
 25 21  2  0
 21 19  1  0
  8  9  2  0
  9 10  1  0
 10 11  2  0
 11 13  1  0
 13 12  2  0
 12  8  1  0
M  END
$$$$
