No_6637-complexes_sdf/6BKW-FPZ/2024-09-17-14-21-01/
     RDKit          3D

 14 14  0  0  0  0  0  0  0  0999 V2000
   -7.9040    3.9820   27.1177 C   0  0  0  0  0  0  0  0  0  0  0  0
   -8.2057    2.8231   26.8733 C   0  0  0  0  0  0  0  0  0  0  0  0
   -9.2962    2.4021   26.1155 C   0  0  0  0  0  0  0  0  0  0  0  0
   -8.7358    5.0662   26.5917 C   0  0  0  0  0  0  0  0  0  0  0  0
   -9.7618    4.7023   25.7546 C   0  0  0  0  0  0  0  0  0  0  0  0
  -10.0066    3.4105   25.4922 C   0  0  0  0  0  0  0  0  0  0  0  0
   -8.3943    6.4760   26.8801 C   0  0  0  0  0  0  0  0  0  0  0  0
   -8.2066    6.7845   28.0690 O   0  0  0  0  0  0  0  0  0  0  0  0
   -8.7675    7.4190   25.9878 O   0  0  0  0  0  0  0  0  0  0  0  0
   -7.3439    1.6715   27.4715 C   0  0  2  0  0  0  0  0  0  0  0  0
   -5.9999    1.9422   27.8144 C   0  0  0  0  0  0  0  0  0  0  0  0
   -5.1643    0.8035   28.1058 C   0  0  0  0  0  0  0  0  0  0  0  0
   -5.6802   -0.4462   28.0753 C   0  0  0  0  0  0  0  0  0  0  0  0
   -7.7215    0.4233   27.3397 F   0  0  0  0  0  0  0  0  0  0  0  0
  4  7  1  0
  7  8  2  0
  7  9  1  0
  2 10  1  0
 10 11  1  0
 11 12  2  3
 12 13  1  0
 10 14  1  6
  1  2  2  0
  2  3  1  0
  3  6  2  0
  6  5  1  0
  5  4  2  0
  4  1  1  0
M  END
$$$$
