No_6020-complexes_sdf/6BKW-FPZ/2024-09-17-14-21-01/
     RDKit          3D

 16 16  0  0  0  0  0  0  0  0999 V2000
   -7.9040    3.9820   27.1177 C   0  0  0  0  0  0  0  0  0  0  0  0
   -8.2057    2.8231   26.8733 C   0  0  0  0  0  0  0  0  0  0  0  0
   -8.7695    5.0740   26.7916 C   0  0  0  0  0  0  0  0  0  0  0  0
   -8.4337    6.4678   27.0913 C   0  0  0  0  0  0  0  0  0  0  0  0
   -9.3742    2.4311   26.2346 C   0  0  0  0  0  0  0  0  0  0  0  0
   -9.6450    1.0516   25.9787 C   0  0  0  0  0  0  0  0  0  0  0  0
   -9.9250    4.7649   26.0943 C   0  0  0  0  0  0  0  0  0  0  0  0
  -10.1643    3.4545   25.8005 C   0  0  0  0  0  0  0  0  0  0  0  0
   -7.9661    6.8900   28.1979 N   0  0  0  0  0  0  0  0  0  0  0  0
   -8.5046    7.3492   26.1329 O   0  0  0  0  0  0  0  0  0  0  0  0
   -8.8328    0.5915   25.4298 Br  0  0  0  0  0  0  0  0  0  0  0  0
  -10.9337    0.6267   26.5374 C   0  0  0  0  0  0  0  0  0  0  0  0
  -11.0586   -0.4681   26.8532 C   0  0  0  0  0  0  0  0  0  0  0  0
  -12.3131   -1.0396   27.5605 C   0  0  0  0  0  0  0  0  0  0  0  0
  -13.2866   -0.0865   27.8266 C   0  0  0  0  0  0  0  0  0  0  0  0
  -13.0986    1.2143   27.5246 C   0  0  0  0  0  0  0  0  0  0  0  0
  3  4  1  0
  5  6  1  0
  4  9  1  0
  4 10  2  0
  6 11  1  0
  6 12  1  0
 12 13  2  3
 13 14  1  0
 14 15  2  3
 15 16  1  0
  1  2  2  0
  2  5  1  0
  5  8  2  0
  8  7  1  0
  7  3  2  0
  3  1  1  0
M  END
$$$$
