No_6116-complexes_sdf/6BKW-FPZ/2024-09-17-14-21-01/
     RDKit          3D

 40 46  0  0  0  0  0  0  0  0999 V2000
   -7.9040    3.9820   27.1177 C   0  0  0  0  0  0  0  0  0  0  0  0
   -9.0711    4.3164   27.0630 C   0  0  0  0  0  0  0  0  0  0  0  0
   -9.5294    5.4517   27.7215 C   0  0  0  0  0  0  0  0  0  0  0  0
   -7.4336    2.7132   26.5681 C   0  0  0  0  0  0  0  0  0  0  0  0
   -8.3353    1.8569   26.0442 C   0  0  0  0  0  0  0  0  0  0  0  0
   -9.6477    2.2853   25.9146 C   0  0  0  0  0  0  0  0  0  0  0  0
  -10.0346    3.4497   26.4483 C   0  0  0  0  0  0  0  0  0  0  0  0
   -7.8608    0.5626   25.5840 C   0  0  0  0  0  0  0  0  0  0  0  0
   -8.2927    0.2179   24.4936 O   0  0  0  0  0  0  0  0  0  0  0  0
   -7.1034   -0.1513   26.3488 O   0  0  0  0  0  0  0  0  0  0  0  0
   -6.8513    4.7515   27.9128 C   0  0  0  0  0  0  0  0  0  0  0  0
   -7.3127    5.9881   28.4750 C   0  0  0  0  0  0  0  0  0  0  0  0
   -8.6300    6.3861   28.3121 C   0  0  0  0  0  0  0  0  0  0  0  0
   -6.4503   -1.2192   26.0460 C   0  0  0  0  0  0  0  0  0  0  0  0
   -6.1554   -2.1011   27.0168 C   0  0  1  0  0  0  0  0  0  0  0  0
   -6.3151   -1.6531   28.2995 C   0  0  2  0  0  0  0  0  0  0  0  0
   -5.2290   -1.0548   29.0202 C   0  0  0  0  0  0  0  0  0  0  0  0
   -4.1506   -1.5356   29.0626 C   0  0  0  0  0  0  0  0  0  0  0  0
   -3.0265   -0.7641   29.6438 C   0  0  0  0  0  0  0  0  0  0  0  0
   -3.3079    0.5145   30.1950 C   0  0  0  0  0  0  0  0  0  0  0  0
   -4.6013    1.0075   30.1350 C   0  0  0  0  0  0  0  0  0  0  0  0
   -5.4839    0.2980   29.5281 C   0  0  0  0  0  0  0  0  0  0  0  0
   -6.9240   -3.4152   26.8146 C   0  0  0  0  0  0  0  0  0  0  0  0
   -7.6209   -3.8437   27.7117 C   0  0  0  0  0  0  0  0  0  0  0  0
   -6.8367   -2.9385   29.1399 C   0  0  2  0  0  0  0  0  0  0  0  0
   -7.8712   -2.6969   30.2485 C   0  0  0  0  0  0  0  0  0  0  0  0
   -5.7241   -3.8044   29.6491 C   0  0  1  0  0  0  0  0  0  0  0  0
   -8.6303   -3.4967   30.4482 C   0  0  0  0  0  0  0  0  0  0  0  0
   -9.5091   -3.1083   31.6400 C   0  0  0  0  0  0  0  0  0  0  0  0
  -10.7858   -3.5676   31.7222 C   0  0  0  0  0  0  0  0  0  0  0  0
  -11.1803   -4.5743   30.8570 C   0  0  0  0  0  0  0  0  0  0  0  0
  -10.4213   -4.9508   29.8088 C   0  0  0  0  0  0  0  0  0  0  0  0
   -9.2079   -4.3678   29.6200 C   0  0  0  0  0  0  0  0  0  0  0  0
   -8.5950   -4.5636   28.2868 C   0  0  0  0  0  0  0  0  0  0  0  0
   -5.7218   -5.1449   30.0904 C   0  0  0  0  0  0  0  0  0  0  0  0
   -4.6001   -5.6856   30.4268 C   0  0  0  0  0  0  0  0  0  0  0  0
   -3.4064   -4.9808   30.3495 C   0  0  0  0  0  0  0  0  0  0  0  0
   -4.2483   -3.4446   29.6876 C   0  0  2  0  0  0  0  0  0  0  0  0
   -3.4937   -3.1459   30.4360 C   0  0  0  0  0  0  0  0  0  0  0  0
   -3.9984   -3.3285   31.9434 C   0  0  0  0  0  0  0  0  0  0  0  0
  5  8  1  0
  8  9  2  0
  8 10  1  0
 10 14  1  0
 15 14  1  6
 15 16  1  0
 16 17  1  1
 15 23  1  0
 16 25  1  0
 24 25  1  0
 25 26  1  1
 25 27  1  0
 24 34  1  0
 33 34  1  0
 27 35  1  6
 35 36  2  0
 36 37  1  0
 27 38  1  0
 37 38  1  0
 38 39  1  1
 39 40  1  0
 23 24  1  0
 28 26  1  0
 28 29  2  0
 29 30  1  0
 30 31  2  0
 31 32  1  0
 32 33  2  0
 33 28  1  0
  2  7  1  0
  7  6  2  0
  6  5  1  0
  5  4  2  0
  4  1  1  0
  1  2  1  0
  2  3  2  0
  3 13  1  0
 13 12  2  0
 12 11  1  0
 11  1  2  0
 17 18  2  0
 18 19  1  0
 19 20  2  0
 20 21  1  0
 21 22  2  0
 22 17  1  0
M  END
$$$$
