No_6568-complexes_sdf/6BKW-FPZ/2024-09-17-14-21-01/
     RDKit          3D

 21 23  0  0  0  0  0  0  0  0999 V2000
   -7.7129    4.2099   27.0854 C   0  0  0  0  0  0  0  0  0  0  0  0
   -7.7814    5.1722   27.8972 C   0  0  0  0  0  0  0  0  0  0  0  0
   -7.3155    2.9699   27.6145 C   0  0  0  0  0  0  0  0  0  0  0  0
   -7.6814    1.8188   26.9581 C   0  0  0  0  0  0  0  0  0  0  0  0
   -8.6377    1.9131   25.9324 C   0  0  0  0  0  0  0  0  0  0  0  0
   -9.1866    3.0673   25.6037 C   0  0  0  0  0  0  0  0  0  0  0  0
   -8.8394    4.1752   26.2513 C   0  0  0  0  0  0  0  0  0  0  0  0
   -8.2486    6.4747   27.5719 N   0  0  0  0  0  0  0  0  0  0  0  0
   -9.0953    6.6391   26.5260 C   0  0  0  0  0  0  0  0  0  0  0  0
   -9.4505    5.4775   25.8556 C   0  0  0  0  0  0  0  0  0  0  0  0
   -7.0267    0.5350   27.2749 C   0  0  0  0  0  0  0  0  0  0  0  0
   -7.5493   -0.5739   27.1630 O   0  0  0  0  0  0  0  0  0  0  0  0
   -5.8930    0.6429   27.9898 O   0  0  0  0  0  0  0  0  0  0  0  0
   -4.6857    0.6499   27.6109 C   0  0  0  0  0  0  0  0  0  0  0  0
   -3.7260    0.4412   28.7565 C   0  0  0  0  0  0  0  0  0  0  0  0
   -2.7658   -0.5603   28.4563 C   0  0  0  0  0  0  0  0  0  0  0  0
   -2.4254   -1.2958   29.4831 C   0  0  0  0  0  0  0  0  0  0  0  0
   -2.6673   -0.9408   30.8933 C   0  0  0  0  0  0  0  0  0  0  0  0
   -3.6490    0.1029   31.0621 C   0  0  0  0  0  0  0  0  0  0  0  0
   -4.2316    0.6385   30.0708 C   0  0  0  0  0  0  0  0  0  0  0  0
   -1.8839   -1.7000   32.1694 Cl  0  0  0  0  0  0  0  0  0  0  0  0
  4 11  1  0
 11 12  2  0
 11 13  1  0
 13 14  1  0
 14 15  1  0
 18 21  1  0
 15 16  2  0
 16 17  1  0
 17 18  2  0
 18 19  1  0
 19 20  2  0
 20 15  1  0
  1  2  2  0
  2  8  1  0
  8  9  2  0
  9 10  1  0
 10  7  2  0
  1  3  1  0
  3  4  2  0
  4  5  1  0
  5  6  2  0
  6  7  1  0
  7  1  1  0
M  END
$$$$
