No_6249-complexes_sdf/6BKW-FPZ/2024-09-17-14-21-01/
     RDKit          3D

 12 13  0  0  0  0  0  0  0  0999 V2000
   -7.9040    3.9820   27.1177 C   0  0  0  0  0  0  0  0  0  0  0  0
   -8.2057    2.8231   26.8733 C   0  0  0  0  0  0  0  0  0  0  0  0
   -9.3234    2.2125   27.0599 C   0  0  0  0  0  0  0  0  0  0  0  0
   -8.7572    4.9160   27.3651 C   0  0  0  0  0  0  0  0  0  0  0  0
  -10.1840    4.4755   27.4635 C   0  0  0  0  0  0  0  0  0  0  0  0
  -10.4467    3.1442   27.3804 C   0  0  0  0  0  0  0  0  0  0  0  0
   -8.4835    6.3615   27.5566 C   0  0  0  0  0  0  0  0  0  0  0  0
   -7.1299    6.7224   27.1819 C   0  0  0  0  0  0  0  0  0  0  0  0
   -9.6569    0.7865   26.9035 C   0  0  0  0  0  0  0  0  0  0  0  0
   -8.6290   -0.0331   26.9835 C   0  0  0  0  0  0  0  0  0  0  0  0
   -7.3820    0.3392   26.9086 C   0  0  0  0  0  0  0  0  0  0  0  0
   -7.0646    1.8135   26.9239 C   0  0  0  0  0  0  0  0  0  0  0  0
  4  7  1  0
  7  8  1  0
  3  9  1  0
  9 10  2  0
 10 11  1  0
 11 12  2  0
 12  2  1  0
  1  2  2  0
  2  3  1  0
  3  6  2  0
  6  5  1  0
  5  4  2  0
  4  1  1  0
M  END
$$$$
