No_6735-complexes_sdf/6BKW-FPZ/2024-09-17-14-21-01/
     RDKit          3D

 17 18  0  0  0  0  0  0  0  0999 V2000
   -7.7129    4.2099   27.0854 C   0  0  0  0  0  0  0  0  0  0  0  0
   -7.7814    5.1722   27.8972 C   0  0  0  0  0  0  0  0  0  0  0  0
   -8.8998    3.8713   26.3707 C   0  0  0  0  0  0  0  0  0  0  0  0
   -9.7507    4.7502   26.0937 C   0  0  0  0  0  0  0  0  0  0  0  0
   -8.6513    6.2837   27.6564 C   0  0  0  0  0  0  0  0  0  0  0  0
   -9.7074    6.0486   26.8335 C   0  0  0  0  0  0  0  0  0  0  0  0
   -6.8085    3.0071   27.4799 C   0  0  0  0  0  0  0  0  0  0  0  0
   -7.1579    1.3006   27.2070 Br  0  0  0  0  0  0  0  0  0  0  0  0
   -5.7545    3.3760   28.1995 O   0  0  0  0  0  0  0  0  0  0  0  0
  -10.7826    4.6382   25.1220 C   0  0  1  0  0  0  0  0  0  0  0  0
  -11.9185    4.1868   25.3516 N   0  0  0  0  0  0  0  0  0  0  0  0
  -12.9259    4.0162   24.4344 C   0  0  0  0  0  0  0  0  0  0  0  0
  -10.4319    5.1783   24.0821 F   0  0  0  0  0  0  0  0  0  0  0  0
  -14.2450    3.8209   24.8241 C   0  0  0  0  0  0  0  0  0  0  0  0
  -12.3411    3.5547   26.6084 C   0  0  0  0  0  0  0  0  0  0  0  0
  -13.5998    3.3926   27.0354 C   0  0  0  0  0  0  0  0  0  0  0  0
  -14.5717    3.4625   26.0519 C   0  0  0  0  0  0  0  0  0  0  0  0
  1  7  1  0
  7  8  1  0
  7  9  2  0
  4 10  1  0
 10 11  1  0
 11 12  1  0
 10 13  1  1
 11 15  1  0
 14 17  1  0
 16 17  1  0
 12 14  1  0
 16 15  1  0
  1  2  2  0
  2  5  1  0
  5  6  2  0
  6  4  1  0
  4  3  2  0
  3  1  1  0
M  END
$$$$
