No_6834-complexes_sdf/6BKW-FPZ/2024-09-17-14-21-01/
     RDKit          3D

 24 26  0  0  0  0  0  0  0  0999 V2000
   -7.9040    3.9820   27.1177 C   0  0  0  0  0  0  0  0  0  0  0  0
   -7.8663    4.8694   27.9238 C   0  0  0  0  0  0  0  0  0  0  0  0
   -9.0501    3.8017   26.2617 C   0  0  0  0  0  0  0  0  0  0  0  0
  -10.0189    4.7608   26.3707 C   0  0  0  0  0  0  0  0  0  0  0  0
   -8.6973    5.9722   27.8968 C   0  0  0  0  0  0  0  0  0  0  0  0
   -9.8216    5.8946   27.1241 C   0  0  0  0  0  0  0  0  0  0  0  0
   -9.1445    2.6271   25.4265 C   0  0  0  0  0  0  0  0  0  0  0  0
   -8.6427    1.4143   25.8470 C   0  0  0  0  0  0  0  0  0  0  0  0
   -8.7182    0.2943   25.0299 C   0  0  0  0  0  0  0  0  0  0  0  0
   -9.2896    0.4616   23.7674 C   0  0  0  0  0  0  0  0  0  0  0  0
   -9.7777    1.6912   23.3100 C   0  0  0  0  0  0  0  0  0  0  0  0
   -9.6729    2.7693   24.1474 C   0  0  0  0  0  0  0  0  0  0  0  0
   -9.3862   -0.7424   22.8405 C   0  0  0  0  0  0  0  0  0  0  0  0
  -10.3724   -1.6236   23.1815 C   0  0  0  0  0  0  0  0  0  0  0  0
  -10.4946   -2.6961   22.4474 C   0  0  0  0  0  0  0  0  0  0  0  0
  -10.0855   -2.9853   21.5394 C   0  0  0  0  0  0  0  0  0  0  0  0
   -8.9625   -2.0411   20.9251 C   0  0  0  0  0  0  0  0  0  0  0  0
   -8.6484   -0.8751   21.6624 C   0  0  0  0  0  0  0  0  0  0  0  0
   -8.1642   -0.9769   25.4586 C   0  0  0  0  0  0  0  0  0  0  0  0
   -7.7552   -1.1855   26.4579 N   0  0  0  0  0  0  0  0  0  0  0  0
   -7.2913   -2.2327   27.0043 C   0  0  0  0  0  0  0  0  0  0  0  0
   -7.6987   -1.7473   24.5719 O   0  0  0  0  0  0  0  0  0  0  0  0
   -7.4151   -3.0700   27.6562 C   0  0  0  0  0  0  0  0  0  0  0  0
   -6.5828   -4.1143   28.1654 C   0  0  0  0  0  0  0  0  0  0  0  0
  3  7  1  0
 10 13  1  0
  9 19  1  0
 19 20  1  0
 20 21  1  0
 19 22  2  0
 21 23  2  3
 23 24  1  0
 13 14  2  0
 14 15  1  0
 15 16  2  0
 16 17  1  0
 17 18  2  0
 18 13  1  0
  1  2  2  0
  2  5  1  0
  5  6  2  0
  6  4  1  0
  4  3  2  0
  3  1  1  0
  7  8  2  0
  8  9  1  0
  9 10  2  0
 10 11  1  0
 11 12  2  0
 12  7  1  0
M  END
$$$$
