No_6397-complexes_sdf/6BKW-FPZ/2024-09-17-14-21-01/
     RDKit          3D

 20 22  0  0  0  0  0  0  0  0999 V2000
   -7.9040    3.9820   27.1177 C   0  0  0  0  0  0  0  0  0  0  0  0
   -8.2057    2.8231   26.8733 C   0  0  0  0  0  0  0  0  0  0  0  0
   -8.7695    5.0740   26.7916 C   0  0  0  0  0  0  0  0  0  0  0  0
   -8.4337    6.4678   27.0913 C   0  0  0  0  0  0  0  0  0  0  0  0
   -7.3775    1.6806   27.3986 C   0  0  0  0  0  0  0  0  0  0  0  0
   -7.6795    0.3394   27.2177 C   0  0  0  0  0  0  0  0  0  0  0  0
   -8.9653    0.1016   26.6342 C   0  0  0  0  0  0  0  0  0  0  0  0
   -9.7377    1.1060   26.1275 C   0  0  0  0  0  0  0  0  0  0  0  0
   -9.3779    2.4385   26.3040 C   0  0  0  0  0  0  0  0  0  0  0  0
   -9.3191    7.4968   26.6788 C   0  0  0  0  0  0  0  0  0  0  0  0
   -9.9150    4.8012   26.0094 C   0  0  0  0  0  0  0  0  0  0  0  0
  -10.2740    3.4485   25.8135 C   0  0  0  0  0  0  0  0  0  0  0  0
   -7.1358    6.7251   27.6882 C   0  0  0  0  0  0  0  0  0  0  0  0
   -6.8461   -0.6824   27.7733 C   0  0  0  0  0  0  0  0  0  0  0  0
   -6.0645   -1.1492   27.2728 C   0  0  0  0  0  0  0  0  0  0  0  0
   -5.0609   -2.1422   27.9081 C   0  0  0  0  0  0  0  0  0  0  0  0
   -3.9070   -2.5700   27.2766 C   0  0  0  0  0  0  0  0  0  0  0  0
   -3.6571   -2.0790   25.9545 C   0  0  0  0  0  0  0  0  0  0  0  0
   -4.4915   -1.1601   25.3900 C   0  0  0  0  0  0  0  0  0  0  0  0
   -5.5856   -0.6309   25.9692 C   0  0  0  0  0  0  0  0  0  0  0  0
  3  4  1  0
  4 10  2  0
  4 13  1  0
  6 14  1  0
 14 15  1  0
  2  5  1  0
  5  6  2  0
  6  7  1  0
  7  8  2  0
  8  9  1  0
  1  2  2  0
  2  9  1  0
  9 12  2  0
 12 11  1  0
 11  3  2  0
  3  1  1  0
 15 16  2  0
 16 17  1  0
 17 18  2  0
 18 19  1  0
 19 20  2  0
 20 15  1  0
M  END
$$$$
