No_6526-complexes_sdf/6BKW-FPZ/2024-09-17-14-21-01/
     RDKit          3D

 33 37  0  0  0  0  0  0  0  0999 V2000
   -7.7129    4.2099   27.0854 C   0  0  0  0  0  0  0  0  0  0  0  0
   -8.2112    3.0637   26.9225 C   0  0  0  0  0  0  0  0  0  0  0  0
   -7.5138    1.9223   27.4249 C   0  0  1  0  0  0  0  0  0  0  0  0
   -8.5309    5.4147   26.8151 C   0  0  0  0  0  0  0  0  0  0  0  0
   -9.6817    5.2393   26.1100 C   0  0  0  0  0  0  0  0  0  0  0  0
  -10.1032    3.9957   25.8534 C   0  0  0  0  0  0  0  0  0  0  0  0
   -9.4034    2.8430   26.2573 C   0  0  0  0  0  0  0  0  0  0  0  0
   -8.0069    0.6506   27.2927 N   0  0  0  0  0  0  0  0  0  0  0  0
   -9.2055    0.4001   27.2689 C   0  0  0  0  0  0  0  0  0  0  0  0
  -10.0552    1.4353   26.4592 C   0  0  1  0  0  0  0  0  0  0  0  0
   -6.1731    2.1904   27.6581 N   0  0  0  0  0  0  0  0  0  0  0  0
   -7.9542    6.7785   27.0249 C   0  0  2  0  0  0  0  0  0  0  0  0
   -7.0615    6.9067   27.9215 N   0  0  0  0  0  0  0  0  0  0  0  0
   -8.4587    7.7823   26.5060 F   0  0  0  0  0  0  0  0  0  0  0  0
   -7.1183   -0.4366   27.7724 C   0  0  0  0  0  0  0  0  0  0  0  0
   -7.5470   -1.4493   28.1194 C   0  0  0  0  0  0  0  0  0  0  0  0
   -5.6865   -0.0760   27.8885 C   0  0  0  0  0  0  0  0  0  0  0  0
   -5.2687    1.2796   27.8809 C   0  0  0  0  0  0  0  0  0  0  0  0
   -6.6862   -2.4777   28.6109 C   0  0  0  0  0  0  0  0  0  0  0  0
   -5.3482   -2.2451   28.7148 C   0  0  0  0  0  0  0  0  0  0  0  0
   -4.7973   -0.9739   28.4628 C   0  0  0  0  0  0  0  0  0  0  0  0
   -4.0779    1.6224   28.0511 O   0  0  0  0  0  0  0  0  0  0  0  0
  -11.3700    1.2290   26.0631 C   0  0  0  0  0  0  0  0  0  0  0  0
  -11.5853    0.7251   24.9963 C   0  0  0  0  0  0  0  0  0  0  0  0
  -12.7521    0.7279   24.3681 C   0  0  0  0  0  0  0  0  0  0  0  0
  -12.3866    1.4793   27.0244 C   0  0  0  0  0  0  0  0  0  0  0  0
  -13.7201    1.3847   26.6004 C   0  0  0  0  0  0  0  0  0  0  0  0
  -14.8102    1.6390   27.5193 C   0  0  0  0  0  0  0  0  0  0  0  0
  -13.8649    0.9611   25.2848 C   0  0  0  0  0  0  0  0  0  0  0  0
  -15.4221    2.5998   27.3623 F   0  0  0  0  0  0  0  0  0  0  0  0
  -14.2577    1.6960   28.7808 F   0  0  0  0  0  0  0  0  0  0  0  0
  -15.5839    0.5134   27.5243 F   0  0  0  0  0  0  0  0  0  0  0  0
   -9.9077   -0.4086   27.7628 O   0  0  0  0  0  0  0  0  0  0  0  0
  2  3  1  0
  3  8  1  0
  8  9  1  0
  7 10  1  0
  9 10  1  0
  3 11  1  6
  4 12  1  0
 12 13  1  1
 12 14  1  0
  8 15  1  0
 11 18  1  0
 17 18  1  0
 18 22  2  0
 10 23  1  1
 27 28  1  0
 28 30  1  0
 28 31  1  0
 28 32  1  0
  9 33  2  0
 23 24  2  0
 24 25  1  0
 25 29  2  0
 29 27  1  0
 27 26  2  0
 26 23  1  0
  1  2  2  0
  2  7  1  0
  7  6  2  0
  6  5  1  0
  5  4  2  0
  4  1  1  0
 15 16  2  0
 16 19  1  0
 19 20  2  0
 20 21  1  0
 21 17  2  0
 17 15  1  0
M  END
$$$$
