No_6044-complexes_sdf/6BKW-FPZ/2024-09-17-14-21-01/
     RDKit          3D

 12 13  0  0  0  0  0  0  0  0999 V2000
   -7.2496    3.8871   27.4508 C   0  0  0  0  0  0  0  0  0  0  0  0
   -7.9379    4.9063   27.8518 C   0  0  0  0  0  0  0  0  0  0  0  0
   -9.3376    4.8647   27.7795 C   0  0  0  0  0  0  0  0  0  0  0  0
   -7.8544    2.6294   27.0414 C   0  0  0  0  0  0  0  0  0  0  0  0
   -9.3041    2.6269   27.0634 C   0  0  0  0  0  0  0  0  0  0  0  0
  -10.0045    3.7216   27.4382 C   0  0  0  0  0  0  0  0  0  0  0  0
  -11.4960    3.6847   27.4444 C   0  0  0  0  0  0  0  0  0  0  0  0
  -12.0501    2.6195   27.8600 C   0  0  0  0  0  0  0  0  0  0  0  0
  -13.4418    2.5116   28.0451 C   0  0  0  0  0  0  0  0  0  0  0  0
  -14.2029    3.6786   27.7560 C   0  0  0  0  0  0  0  0  0  0  0  0
  -13.5992    4.8206   27.3517 C   0  0  0  0  0  0  0  0  0  0  0  0
  -12.2008    4.9019   27.2709 C   0  0  0  0  0  0  0  0  0  0  0  0
  6  7  1  0
  1  2  2  0
  2  3  1  0
  3  6  2  0
  6  5  1  0
  5  4  2  0
  4  1  1  0
  7  8  2  0
  8  9  1  0
  9 10  2  0
 10 11  1  0
 11 12  2  0
 12  7  1  0
M  END
$$$$
