No_631-complexes_sdf/6BKW-FPZ/2024-09-17-14-21-01/
     RDKit          3D

 40 44  0  0  0  0  0  0  0  0999 V2000
   -7.2496    3.8871   27.4508 C   0  0  0  0  0  0  0  0  0  0  0  0
   -7.6161    2.7143   27.1523 C   0  0  0  0  0  0  0  0  0  0  0  0
   -7.1618    1.8631   27.5232 C   0  0  0  0  0  0  0  0  0  0  0  0
   -8.0036    5.1085   27.2100 C   0  0  2  0  0  0  0  0  0  0  0  0
   -9.0765    5.1561   26.4023 C   0  0  0  0  0  0  0  0  0  0  0  0
   -9.5423    3.9740   25.8512 C   0  0  0  0  0  0  0  0  0  0  0  0
   -8.8464    2.7352   26.2620 C   0  0  0  0  0  0  0  0  0  0  0  0
   -6.6339    0.7378   27.0346 C   0  0  0  0  0  0  0  0  0  0  0  0
   -7.2572    0.0127   26.0745 C   0  0  0  0  0  0  0  0  0  0  0  0
   -6.7486   -1.1576   25.5030 C   0  0  0  0  0  0  0  0  0  0  0  0
   -7.4018    6.5973   27.9752 Cl  0  0  0  0  0  0  0  0  0  0  0  0
   -5.4696   -1.5314   25.9288 C   0  0  0  0  0  0  0  0  0  0  0  0
   -4.7510   -0.8718   26.8794 C   0  0  0  0  0  0  0  0  0  0  0  0
   -5.2840    0.2552   27.4789 C   0  0  0  0  0  0  0  0  0  0  0  0
  -10.6040    3.8769   24.9406 C   0  0  0  0  0  0  0  0  0  0  0  0
  -11.8510    3.7125   25.3702 C   0  0  0  0  0  0  0  0  0  0  0  0
  -10.3612    4.1029   23.5422 C   0  0  0  0  0  0  0  0  0  0  0  0
  -12.9539    3.7045   24.5058 C   0  0  0  0  0  0  0  0  0  0  0  0
  -11.3895    4.2258   22.6271 C   0  0  0  0  0  0  0  0  0  0  0  0
  -12.6970    4.0211   23.1260 C   0  0  0  0  0  0  0  0  0  0  0  0
   -4.5515    0.9629   28.5179 C   0  0  0  0  0  0  0  0  0  0  0  0
   -2.9183    0.8503   28.6524 Cl  0  0  0  0  0  0  0  0  0  0  0  0
  -12.2458    3.4618   27.0233 Cl  0  0  0  0  0  0  0  0  0  0  0  0
  -11.0682    4.5061   21.0314 Cl  0  0  0  0  0  0  0  0  0  0  0  0
   -7.4602   -1.8504   24.4666 C   0  0  0  0  0  0  0  0  0  0  0  0
   -7.0159   -2.3805   23.5465 N   0  0  0  0  0  0  0  0  0  0  0  0
   -6.2026   -3.0756   23.4294 C   0  0  0  0  0  0  0  0  0  0  0  0
   -7.5106   -1.9358   22.1301 C   0  0  0  0  0  0  0  0  0  0  0  0
   -8.3855   -0.9550   22.1060 C   0  0  2  0  0  0  0  0  0  0  0  0
   -9.6079   -1.0422   21.5144 C   0  0  0  0  0  0  0  0  0  0  0  0
  -10.4315    0.1582   21.3717 C   0  0  0  0  0  0  0  0  0  0  0  0
  -11.6603    0.1843   20.6895 C   0  0  0  0  0  0  0  0  0  0  0  0
  -12.0398   -1.0228   20.1194 C   0  0  0  0  0  0  0  0  0  0  0  0
  -11.2617   -2.1478   20.1476 C   0  0  0  0  0  0  0  0  0  0  0  0
  -10.0478   -2.1148   20.7909 C   0  0  0  0  0  0  0  0  0  0  0  0
   -6.9865   -2.5514   20.9946 C   0  0  0  0  0  0  0  0  0  0  0  0
   -5.8884   -3.4019   21.0453 C   0  0  0  0  0  0  0  0  0  0  0  0
   -5.6030   -3.6593   22.3739 C   0  0  0  0  0  0  0  0  0  0  0  0
   -8.7578   -2.0451   24.8242 O   0  0  0  0  0  0  0  0  0  0  0  0
   -8.0558    0.4207   22.6786 C   0  0  0  0  0  0  0  0  0  0  0  0
  1  2  1  0
  2  3  2  3
  1  4  1  0
  4  5  1  0
  5  6  1  0
  2  7  1  0
  6  7  1  0
  3  8  1  0
  4 11  1  6
  6 15  1  0
 14 21  1  0
 21 22  1  0
 16 23  1  0
 19 24  1  0
 10 25  1  0
 25 26  1  0
 26 27  1  0
 26 28  1  0
 28 29  1  0
 28 36  1  0
 37 38  1  0
 25 39  2  0
 29 40  1  6
 29 30  1  0
 27 38  1  0
 37 36  1  0
 30 31  2  0
 31 32  1  0
 32 33  2  0
 33 34  1  0
 34 35  2  0
 35 30  1  0
 15 16  2  0
 16 18  1  0
 18 20  2  0
 20 19  1  0
 19 17  2  0
 17 15  1  0
  8  9  2  0
  9 10  1  0
 10 12  2  0
 12 13  1  0
 13 14  2  0
 14  8  1  0
M  END
$$$$
