No_6285-complexes_sdf/6BKW-FPZ/2024-09-17-14-21-01/
     RDKit          3D

 38 42  0  0  0  0  0  0  0  0999 V2000
   -7.7129    4.2099   27.0854 C   0  0  0  0  0  0  0  0  0  0  0  0
   -7.7814    5.1722   27.8972 C   0  0  0  0  0  0  0  0  0  0  0  0
   -8.8998    3.8713   26.3707 C   0  0  0  0  0  0  0  0  0  0  0  0
   -9.9938    4.6774   26.5446 C   0  0  0  0  0  0  0  0  0  0  0  0
   -8.8079    6.0757   27.7107 C   0  0  0  0  0  0  0  0  0  0  0  0
   -9.8950    5.8512   27.0925 C   0  0  0  0  0  0  0  0  0  0  0  0
   -8.9254    2.5760   25.6341 C   0  0  0  0  0  0  0  0  0  0  0  0
   -9.7466    1.6805   26.1193 C   0  0  0  0  0  0  0  0  0  0  0  0
   -9.7782    0.3680   25.4668 C   0  0  0  0  0  0  0  0  0  0  0  0
  -10.6532   -0.5732   26.0142 C   0  0  0  0  0  0  0  0  0  0  0  0
  -11.3768   -0.2995   27.1929 C   0  0  0  0  0  0  0  0  0  0  0  0
  -11.2765    0.9091   27.8356 C   0  0  0  0  0  0  0  0  0  0  0  0
  -10.4731    1.8742   27.3858 C   0  0  0  0  0  0  0  0  0  0  0  0
  -12.2497   -1.3929   27.7727 C   0  0  0  0  0  0  0  0  0  0  0  0
  -12.8438   -1.4323   28.7086 N   0  0  0  0  0  0  0  0  0  0  0  0
  -12.3115   -2.5120   27.0479 O   0  0  0  0  0  0  0  0  0  0  0  0
  -13.6825   -2.3862   29.3713 C   0  0  0  0  0  0  0  0  0  0  0  0
  -14.2880   -2.0435   30.4219 C   0  0  0  0  0  0  0  0  0  0  0  0
  -14.1952   -0.7761   30.9798 C   0  0  0  0  0  0  0  0  0  0  0  0
  -13.4423    0.2327   30.3856 C   0  0  0  0  0  0  0  0  0  0  0  0
  -12.8142   -0.0085   29.4147 C   0  0  0  0  0  0  0  0  0  0  0  0
  -11.9955    0.9578   28.8711 N   0  0  0  0  0  0  0  0  0  0  0  0
   -6.6824    5.6403   28.5488 F   0  0  0  0  0  0  0  0  0  0  0  0
   -9.0551    0.1532   24.3124 C   0  0  0  0  0  0  0  0  0  0  0  0
   -9.2032   -0.8024   23.5701 C   0  0  0  0  0  0  0  0  0  0  0  0
   -8.3928   -0.9631   22.3496 C   0  0  0  0  0  0  0  0  0  0  0  0
   -8.5517   -2.0021   21.4409 C   0  0  0  0  0  0  0  0  0  0  0  0
   -9.5425   -2.8695   21.6268 C   0  0  0  0  0  0  0  0  0  0  0  0
  -10.3679   -2.7761   22.7297 C   0  0  0  0  0  0  0  0  0  0  0  0
  -10.2121   -1.8208   23.6379 C   0  0  0  0  0  0  0  0  0  0  0  0
   -9.7284   -3.8781   20.7118 O   0  0  0  0  0  0  0  0  0  0  0  0
   -9.5237   -3.8692   19.5595 C   0  0  0  0  0  0  0  0  0  0  0  0
  -10.0002   -2.9258   18.7154 C   0  0  0  0  0  0  0  0  0  0  0  0
  -10.9371   -2.1390   19.0772 C   0  0  0  0  0  0  0  0  0  0  0  0
  -11.4323   -1.1056   18.1138 C   0  0  0  0  0  0  0  0  0  0  0  0
  -12.3531   -0.0748   18.5141 C   0  0  0  0  0  0  0  0  0  0  0  0
  -12.7916   -0.1124   19.8470 C   0  0  0  0  0  0  0  0  0  0  0  0
  -12.3324   -1.0378   20.7411 C   0  0  0  0  0  0  0  0  0  0  0  0
  3  7  1  0
 11 14  1  0
 14 15  1  0
 14 16  2  0
 15 17  1  0
 17 18  1  0
 19 20  1  0
 15 21  1  0
 12 22  1  0
 21 22  1  0
  2 23  1  0
  9 24  1  0
 28 31  1  0
 31 32  1  0
 32 33  1  0
 33 34  2  3
 34 35  1  0
 35 36  2  3
 36 37  1  0
 37 38  2  0
 24 25  1  0
  7  8  1  0
 18 19  1  0
 20 21  1  0
  1  2  2  0
  2  5  1  0
  5  6  2  0
  6  4  1  0
  4  3  2  0
  3  1  1  0
 25 26  2  0
 26 27  1  0
 27 28  2  0
 28 29  1  0
 29 30  2  0
 30 25  1  0
  8  9  1  0
  9 10  2  0
 10 11  1  0
 11 12  2  0
 12 13  1  0
 13  8  2  0
M  END
$$$$
