No_690-complexes_sdf/6BKW-FPZ/2024-09-17-14-21-01/
     RDKit          3D

 24 27  0  0  0  0  0  0  0  0999 V2000
   -7.7129    4.2099   27.0854 C   0  0  0  0  0  0  0  0  0  0  0  0
   -8.9133    4.4736   27.0998 C   0  0  0  0  0  0  0  0  0  0  0  0
   -9.8363    3.8127   27.2418 C   0  0  0  0  0  0  0  0  0  0  0  0
   -7.2995    2.8520   27.3808 C   0  0  0  0  0  0  0  0  0  0  0  0
   -8.3404    1.9507   27.4989 C   0  0  0  0  0  0  0  0  0  0  0  0
   -9.6166    2.3791   27.4719 C   0  0  0  0  0  0  0  0  0  0  0  0
   -8.9357    6.0643   26.8327 C   0  0  0  0  0  0  0  0  0  0  0  0
   -8.9201    6.3016   25.6852 F   0  0  0  0  0  0  0  0  0  0  0  0
  -10.1478    6.5715   27.3482 F   0  0  0  0  0  0  0  0  0  0  0  0
   -7.9770    6.8045   27.4227 F   0  0  0  0  0  0  0  0  0  0  0  0
   -7.9975    0.5304   27.6585 C   0  0  0  0  0  0  0  0  0  0  0  0
   -7.8914   -0.2833   26.7707 C   0  0  0  0  0  0  0  0  0  0  0  0
   -7.4919   -1.6504   26.9615 C   0  0  0  0  0  0  0  0  0  0  0  0
   -7.2171   -2.0258   28.2842 C   0  0  0  0  0  0  0  0  0  0  0  0
   -7.2599   -1.1320   29.2596 C   0  0  0  0  0  0  0  0  0  0  0  0
   -7.5864    0.1004   29.0131 C   0  0  0  0  0  0  0  0  0  0  0  0
  -10.7447    1.4878   27.7584 C   0  0  0  0  0  0  0  0  0  0  0  0
  -10.9734    0.3314   27.2756 C   0  0  0  0  0  0  0  0  0  0  0  0
  -10.3731   -0.0634   26.1129 C   0  0  1  0  0  0  0  0  0  0  0  0
   -8.9851   -0.6492   26.1543 C   0  0  1  0  0  0  0  0  0  0  0  0
   -8.8664   -1.6545   24.9398 C   0  0  0  0  0  0  0  0  0  0  0  0
   -9.9246   -1.6910   24.2669 C   0  0  0  0  0  0  0  0  0  0  0  0
  -11.0175   -1.0390   25.1857 C   0  0  0  0  0  0  0  0  0  0  0  0
   -6.0423   -1.8308   26.2871 C   0  0  0  0  0  0  0  0  0  0  0  0
  2  7  1  0
  7  8  1  0
  7  9  1  0
  7 10  1  0
  5 11  1  0
  6 17  1  0
 17 18  2  3
 18 19  1  0
 12 20  1  0
 19 20  1  0
 20 21  1  6
 21 22  2  0
 19 23  1  1
 22 23  1  0
 13 24  1  0
 11 12  2  0
 12 13  1  0
 13 14  2  0
 14 15  1  0
 15 16  2  0
 16 11  1  0
  1  2  2  0
  2  3  1  0
  3  6  2  0
  6  5  1  0
  5  4  2  0
  4  1  1  0
M  END
$$$$
