No_6580-complexes_sdf/6BKW-FPZ/2024-09-17-14-21-01/
     RDKit          3D

 13 14  0  0  0  0  0  0  0  0999 V2000
   -7.2496    3.8871   27.4508 C   0  0  0  0  0  0  0  0  0  0  0  0
   -7.9379    4.9063   27.8518 C   0  0  0  0  0  0  0  0  0  0  0  0
   -7.5112    6.1898   27.6280 C   0  0  0  0  0  0  0  0  0  0  0  0
   -9.4044    4.7330   27.8015 C   0  0  0  0  0  0  0  0  0  0  0  0
   -7.8289    2.5799   27.2061 C   0  0  0  0  0  0  0  0  0  0  0  0
  -10.0083    3.4900   27.8070 C   0  0  0  0  0  0  0  0  0  0  0  0
   -9.1724    2.4034   27.5228 C   0  0  0  0  0  0  0  0  0  0  0  0
  -11.4102    3.2495   28.0864 C   0  0  0  0  0  0  0  0  0  0  0  0
  -11.8142    2.1584   28.7644 C   0  0  0  0  0  0  0  0  0  0  0  0
  -13.1735    1.9279   29.1268 C   0  0  0  0  0  0  0  0  0  0  0  0
  -14.0639    2.9952   28.9174 C   0  0  0  0  0  0  0  0  0  0  0  0
  -12.3667    4.3243   27.9876 C   0  0  0  0  0  0  0  0  0  0  0  0
  -13.6342    4.2053   28.3523 C   0  0  0  0  0  0  0  0  0  0  0  0
  2  3  1  0
  6  8  1  0
  1  2  2  0
  2  4  1  0
  4  6  2  0
  6  7  1  0
  7  5  2  0
  5  1  1  0
  8  9  2  0
  9 10  1  0
 10 11  2  0
 11 13  1  0
 13 12  2  0
 12  8  1  0
M  END
$$$$
