No_6259-complexes_sdf/6BKW-FPZ/2024-09-17-14-21-01/
     RDKit          3D

 29 32  0  0  0  0  0  0  0  0999 V2000
   -7.9040    3.9820   27.1177 C   0  0  0  0  0  0  0  0  0  0  0  0
   -7.8663    4.8694   27.9238 C   0  0  0  0  0  0  0  0  0  0  0  0
   -9.0501    3.8017   26.2617 C   0  0  0  0  0  0  0  0  0  0  0  0
  -10.0189    4.7608   26.3707 C   0  0  0  0  0  0  0  0  0  0  0  0
   -8.6973    5.9722   27.8968 C   0  0  0  0  0  0  0  0  0  0  0  0
   -9.8216    5.8946   27.1241 C   0  0  0  0  0  0  0  0  0  0  0  0
   -9.1437    2.6293   25.4175 C   0  0  0  0  0  0  0  0  0  0  0  0
   -8.6170    1.4258   25.8177 C   0  0  0  0  0  0  0  0  0  0  0  0
   -8.6844    0.3194   24.9788 C   0  0  0  0  0  0  0  0  0  0  0  0
   -9.3360    0.4939   23.7289 C   0  0  0  0  0  0  0  0  0  0  0  0
   -9.8521    1.7195   23.3158 C   0  0  0  0  0  0  0  0  0  0  0  0
   -9.7240    2.7821   24.1593 C   0  0  0  0  0  0  0  0  0  0  0  0
  -10.4661    1.8424   22.0042 C   0  0  0  0  0  0  0  0  0  0  0  0
  -10.4453    3.0776   21.4846 C   0  0  0  0  0  0  0  0  0  0  0  0
  -11.0183    3.2930   20.1916 C   0  0  0  0  0  0  0  0  0  0  0  0
  -11.5003    2.2211   19.4543 C   0  0  0  0  0  0  0  0  0  0  0  0
  -11.4217    0.9436   20.0115 C   0  0  0  0  0  0  0  0  0  0  0  0
  -10.8898    0.7873   21.2619 C   0  0  0  0  0  0  0  0  0  0  0  0
   -8.0890   -0.9186   25.3744 C   0  0  1  0  0  0  0  0  0  0  0  0
   -8.3245   -1.3486   26.6065 C   0  0  0  0  0  0  0  0  0  0  0  0
   -9.3846   -1.1006   27.2488 C   0  0  0  0  0  0  0  0  0  0  0  0
  -10.5016   -1.9099   27.2596 C   0  0  0  0  0  0  0  0  0  0  0  0
  -11.7478   -1.5300   27.9129 C   0  0  0  0  0  0  0  0  0  0  0  0
  -11.8144   -0.2807   28.5798 C   0  0  0  0  0  0  0  0  0  0  0  0
  -10.7458    0.6181   28.5164 C   0  0  0  0  0  0  0  0  0  0  0  0
   -9.6060    0.2722   27.9245 C   0  0  0  0  0  0  0  0  0  0  0  0
   -7.3865   -1.6778   24.4000 C   0  0  0  0  0  0  0  0  0  0  0  0
   -7.6918   -2.2154   23.4542 C   0  0  0  0  0  0  0  0  0  0  0  0
   -7.1280   -2.8540   22.5864 C   0  0  0  0  0  0  0  0  0  0  0  0
  3  7  1  0
 11 13  1  0
  9 19  1  0
 19 20  1  6
 20 21  1  0
 19 27  1  0
 27 28  2  3
 28 29  1  0
 13 14  2  0
 14 15  1  0
 15 16  2  0
 16 17  1  0
 17 18  2  0
 18 13  1  0
  1  2  2  0
  2  5  1  0
  5  6  2  0
  6  4  1  0
  4  3  2  0
  3  1  1  0
  7  8  2  0
  8  9  1  0
  9 10  2  0
 10 11  1  0
 11 12  2  0
 12  7  1  0
 21 22  2  0
 22 23  1  0
 23 24  2  0
 24 25  1  0
 25 26  2  0
 26 21  1  0
M  END
$$$$
