No_6522-complexes_sdf/6BKW-FPZ/2024-09-17-14-21-01/
     RDKit          3D

 27 29  0  0  0  0  0  0  0  0999 V2000
   -7.9040    3.9820   27.1177 C   0  0  0  0  0  0  0  0  0  0  0  0
   -8.2057    2.8231   26.8733 C   0  0  0  0  0  0  0  0  0  0  0  0
   -8.7695    5.0740   26.7916 C   0  0  0  0  0  0  0  0  0  0  0  0
   -8.4337    6.4678   27.0913 C   0  0  0  0  0  0  0  0  0  0  0  0
   -9.3742    2.4311   26.2346 C   0  0  0  0  0  0  0  0  0  0  0  0
  -10.2395    3.4267   25.8887 C   0  0  0  0  0  0  0  0  0  0  0  0
   -9.9567    4.7548   26.1374 C   0  0  0  0  0  0  0  0  0  0  0  0
   -7.9839    7.5474   27.0128 N   0  0  0  0  0  0  0  0  0  0  0  0
   -7.2381    1.6824   27.2965 C   0  0  0  0  0  0  0  0  0  0  0  0
   -5.9949    2.0257   27.8673 C   0  0  0  0  0  0  0  0  0  0  0  0
   -5.0996    0.9558   28.2284 C   0  0  0  0  0  0  0  0  0  0  0  0
   -5.4917   -0.3317   28.1472 C   0  0  0  0  0  0  0  0  0  0  0  0
   -7.5122    0.3327   27.2659 C   0  0  0  0  0  0  0  0  0  0  0  0
   -6.7444   -0.6221   27.7001 C   0  0  0  0  0  0  0  0  0  0  0  0
   -4.5646   -1.3755   28.6945 C   0  0  0  0  0  0  0  0  0  0  0  0
   -4.6531   -1.8917   29.7370 N   0  0  0  0  0  0  0  0  0  0  0  0
   -5.4253   -1.6146   30.6931 C   0  0  0  0  0  0  0  0  0  0  0  0
   -5.4096   -1.3529   31.7467 C   0  0  0  0  0  0  0  0  0  0  0  0
   -6.5217   -1.0730   32.7274 C   0  0  0  0  0  0  0  0  0  0  0  0
   -6.2129   -0.5981   34.0038 C   0  0  0  0  0  0  0  0  0  0  0  0
   -4.0900   -1.2533   32.5292 C   0  0  0  0  0  0  0  0  0  0  0  0
   -3.8547   -0.8952   33.8335 C   0  0  0  0  0  0  0  0  0  0  0  0
   -4.9212   -0.6473   34.6108 C   0  0  0  0  0  0  0  0  0  0  0  0
   -3.8271   -1.8059   27.7392 O   0  0  0  0  0  0  0  0  0  0  0  0
   -4.7134   -0.2570   36.0320 C   0  0  0  0  0  0  0  0  0  0  0  0
   -3.7476    0.2315   36.4583 O   0  0  0  0  0  0  0  0  0  0  0  0
   -5.7002   -0.7267   36.8985 O   0  0  0  0  0  0  0  0  0  0  0  0
  3  4  1  0
  4  8  3  0
  2  9  1  0
 12 15  1  0
 15 16  1  0
 16 17  1  0
 15 24  2  0
 23 25  1  0
 25 26  2  0
 25 27  1  0
 17 18  1  0
  1  2  2  0
  2  5  1  0
  5  6  2  0
  6  7  1  0
  7  3  2  0
  3  1  1  0
  9 10  2  0
 10 11  1  0
 11 12  2  0
 12 14  1  0
 14 13  2  0
 13  9  1  0
 18 19  2  0
 19 20  1  0
 20 23  2  0
 23 22  1  0
 22 21  2  0
 21 18  1  0
M  END
$$$$
