No_6710-complexes_sdf/6BKW-FPZ/2024-09-17-14-21-01/
     RDKit          3D

 31 34  0  0  0  0  0  0  0  0999 V2000
   -7.9040    3.9820   27.1177 C   0  0  0  0  0  0  0  0  0  0  0  0
   -9.0711    4.3164   27.0630 C   0  0  0  0  0  0  0  0  0  0  0  0
   -9.8698    3.9665   25.9495 C   0  0  0  0  0  0  0  0  0  0  0  0
   -7.0332    4.5030   28.2025 C   0  0  0  0  0  0  0  0  0  0  0  0
  -10.9909    4.7237   25.5958 C   0  0  0  0  0  0  0  0  0  0  0  0
   -7.4408    5.6019   28.6889 N   0  0  0  0  0  0  0  0  0  0  0  0
  -11.7567    4.2041   24.5601 C   0  0  0  0  0  0  0  0  0  0  0  0
  -11.3145    3.1651   23.7583 C   0  0  0  0  0  0  0  0  0  0  0  0
  -10.1801    2.5244   24.0726 C   0  0  0  0  0  0  0  0  0  0  0  0
   -9.4041    2.9767   25.1696 C   0  0  0  0  0  0  0  0  0  0  0  0
   -9.2420    5.5459   27.8746 C   0  0  0  0  0  0  0  0  0  0  0  0
   -8.3118    6.1236   28.4941 C   0  0  0  0  0  0  0  0  0  0  0  0
   -9.6943    1.3661   23.2636 C   0  0  0  0  0  0  0  0  0  0  0  0
   -9.9905    1.2321   21.9558 C   0  0  0  0  0  0  0  0  0  0  0  0
  -10.8089    2.2198   21.3563 C   0  0  0  0  0  0  0  0  0  0  0  0
  -11.1912    2.1262   20.0083 C   0  0  0  0  0  0  0  0  0  0  0  0
  -11.4679    3.2404   22.1688 C   0  0  0  0  0  0  0  0  0  0  0  0
   -5.7552    3.9898   28.2777 N   0  0  0  0  0  0  0  0  0  0  0  0
  -11.1608    3.2248   19.3409 N   0  0  0  0  0  0  0  0  0  0  0  0
   -8.6866    0.4719   23.9290 C   0  0  0  0  0  0  0  0  0  0  0  0
   -9.3858   -0.3941   25.3577 P   0  0  2  0  0  0  0  0  0  0  0  0
  -10.6453   -0.1362   25.5448 O   0  0  0  0  0  0  0  0  0  0  0  0
   -8.4940    0.0021   26.5085 O   0  0  0  0  0  0  0  0  0  0  0  0
   -9.1283   -1.8495   25.0867 O   0  0  0  0  0  0  0  0  0  0  0  0
   -8.0416   -0.8321   27.4996 C   0  0  0  0  0  0  0  0  0  0  0  0
   -6.5964   -0.8547   27.7356 C   0  0  0  0  0  0  0  0  0  0  0  0
   -6.1053   -1.5726   28.7920 C   0  0  0  0  0  0  0  0  0  0  0  0
   -4.7477   -1.5249   29.1150 C   0  0  0  0  0  0  0  0  0  0  0  0
   -3.8328   -0.6985   28.3388 C   0  0  0  0  0  0  0  0  0  0  0  0
   -4.4032    0.0698   27.3141 C   0  0  0  0  0  0  0  0  0  0  0  0
   -5.7419    0.0440   27.0529 C   0  0  0  0  0  0  0  0  0  0  0  0
 15 16  1  0
  4 18  1  0
 16 19  1  0
 13 20  1  0
 20 21  1  0
 21 22  1  1
 21 23  1  0
 21 24  2  0
 23 25  1  0
 25 26  1  0
  3  2  1  0
  1  2  2  0
  2 11  1  0
 11 12  2  0
 12  6  1  0
  6  4  2  0
  4  1  1  0
  9 13  1  0
 13 14  2  0
 14 15  1  0
 15 17  2  0
 17  8  1  0
  3  5  2  0
  5  7  1  0
  7  8  2  0
  8  9  1  0
  9 10  2  0
 10  3  1  0
 26 27  2  0
 27 28  1  0
 28 29  2  0
 29 30  1  0
 30 31  2  0
 31 26  1  0
M  END
$$$$
