No_615-complexes_sdf/6BKW-FPZ/2024-09-17-14-21-01/
     RDKit          3D

 14 15  0  0  0  0  0  0  0  0999 V2000
   -7.2496    3.8871   27.4508 C   0  0  0  0  0  0  0  0  0  0  0  0
   -7.6161    2.7143   27.1523 C   0  0  0  0  0  0  0  0  0  0  0  0
   -8.8827    2.2318   27.1220 C   0  0  0  0  0  0  0  0  0  0  0  0
   -8.2837    4.9116   27.6108 C   0  0  0  0  0  0  0  0  0  0  0  0
   -9.6088    4.5175   27.5560 C   0  0  0  0  0  0  0  0  0  0  0  0
   -9.9243    3.2149   27.3938 C   0  0  0  0  0  0  0  0  0  0  0  0
   -7.9091    6.1407   27.9093 F   0  0  0  0  0  0  0  0  0  0  0  0
   -9.2771    0.8551   26.9174 C   0  0  0  0  0  0  0  0  0  0  0  0
  -10.3035    0.3672   27.5256 C   0  0  0  0  0  0  0  0  0  0  0  0
  -11.3177    1.3204   28.0930 C   0  0  0  0  0  0  0  0  0  0  0  0
  -11.1681    2.6610   27.9303 C   0  0  0  0  0  0  0  0  0  0  0  0
  -12.6229    0.7353   28.5484 C   0  0  0  0  0  0  0  0  0  0  0  0
  -13.2185    1.3903   29.2982 O   0  0  0  0  0  0  0  0  0  0  0  0
  -12.8961   -0.4927   28.2734 O   0  0  0  0  0  0  0  0  0  0  0  0
  4  7  1  0
 10 12  1  0
 12 13  2  0
 12 14  1  0
  1  2  2  0
  2  3  1  0
  6  5  1  0
  5  4  2  0
  4  1  1  0
  3  6  2  0
  6 11  1  0
 11 10  2  0
 10  9  1  0
  9  8  2  0
  8  3  1  0
M  END
$$$$
