No_6848-complexes_sdf/6BKW-FPZ/2024-09-17-14-21-01/
     RDKit          3D

 15 16  0  0  0  0  0  0  0  0999 V2000
   -7.9040    3.9820   27.1177 C   0  0  0  0  0  0  0  0  0  0  0  0
   -9.0711    4.3164   27.0630 C   0  0  0  0  0  0  0  0  0  0  0  0
   -9.5294    5.4517   27.7215 C   0  0  0  0  0  0  0  0  0  0  0  0
   -6.9328    4.7309   27.8881 C   0  0  0  0  0  0  0  0  0  0  0  0
   -7.3666    5.8455   28.5488 C   0  0  0  0  0  0  0  0  0  0  0  0
   -8.6669    6.2428   28.4199 C   0  0  0  0  0  0  0  0  0  0  0  0
  -10.0479    3.5083   26.2510 C   0  0  2  0  0  0  0  0  0  0  0  0
  -10.5051    2.4499   26.2672 N   0  0  0  0  0  0  0  0  0  0  0  0
  -10.3018    1.7739   27.3542 C   0  0  0  0  0  0  0  0  0  0  0  0
  -10.3285    4.3220   24.9215 C   0  0  0  0  0  0  0  0  0  0  0  0
  -10.8321    0.3628   27.5444 C   0  0  0  0  0  0  0  0  0  0  0  0
  -10.8965    3.6446   23.8855 C   0  0  0  0  0  0  0  0  0  0  0  0
  -11.2452    2.3686   24.0390 C   0  0  0  0  0  0  0  0  0  0  0  0
  -10.9858    1.7307   25.2442 C   0  0  0  0  0  0  0  0  0  0  0  0
  -10.8389   -0.1901   28.7182 C   0  0  0  0  0  0  0  0  0  0  0  0
  7  2  1  6
  7  8  1  0
  8  9  1  0
  7 10  1  0
  9 11  2  3
 10 12  1  0
 12 13  1  0
  8 14  1  0
 11 15  1  0
 13 14  1  0
  1  2  2  0
  2  3  1  0
  3  6  2  0
  6  5  1  0
  5  4  2  0
  4  1  1  0
M  END
$$$$
