No_6430-complexes_sdf/6BKW-FPZ/2024-09-17-14-21-01/
     RDKit          3D

 16 17  0  0  0  0  0  0  0  0999 V2000
   -7.9040    3.9820   27.1177 C   0  0  0  0  0  0  0  0  0  0  0  0
   -8.2057    2.8231   26.8733 C   0  0  0  0  0  0  0  0  0  0  0  0
   -8.7695    5.0740   26.7916 C   0  0  0  0  0  0  0  0  0  0  0  0
   -9.9618    4.7598   26.1630 C   0  0  0  0  0  0  0  0  0  0  0  0
   -9.4200    2.4524   26.2850 C   0  0  0  0  0  0  0  0  0  0  0  0
  -10.2590    3.4815   25.9250 C   0  0  0  0  0  0  0  0  0  0  0  0
   -8.3840    6.4693   27.0829 C   0  0  0  0  0  0  0  0  0  0  0  0
   -7.7453    6.8270   28.1334 N   0  0  0  0  0  0  0  0  0  0  0  0
   -8.8351    7.5177   26.3596 N   0  0  0  0  0  0  0  0  0  0  0  0
   -7.2747    1.6737   27.2735 C   0  0  0  0  0  0  0  0  0  0  0  0
   -6.1187    1.9785   27.8390 N   0  0  0  0  0  0  0  0  0  0  0  0
   -5.2617    0.9071   28.1546 C   0  0  0  0  0  0  0  0  0  0  0  0
   -7.4501    0.3574   27.0533 C   0  0  0  0  0  0  0  0  0  0  0  0
   -6.6945   -0.6405   27.4180 C   0  0  0  0  0  0  0  0  0  0  0  0
   -5.5123   -0.3213   28.0578 C   0  0  0  0  0  0  0  0  0  0  0  0
   -4.0298    1.4249   28.8087 N   0  0  0  0  0  0  0  0  0  0  0  0
  3  7  1  0
  7  8  2  0
  7  9  1  0
  2 10  1  0
 12 16  1  0
  1  2  2  0
  2  5  1  0
  5  6  2  0
  6  4  1  0
  4  3  2  0
  3  1  1  0
 10 11  2  0
 11 12  1  0
 12 15  2  0
 15 14  1  0
 14 13  2  0
 13 10  1  0
M  END
$$$$
