No_6529-complexes_sdf/6BKW-FPZ/2024-09-17-14-21-01/
     RDKit          3D

 40 46  0  0  0  0  0  0  0  0999 V2000
   -7.9040    3.9820   27.1177 C   0  0  0  0  0  0  0  0  0  0  0  0
   -9.0711    4.3164   27.0630 C   0  0  0  0  0  0  0  0  0  0  0  0
   -9.5294    5.4517   27.7215 C   0  0  0  0  0  0  0  0  0  0  0  0
   -6.9328    4.7309   27.8881 C   0  0  0  0  0  0  0  0  0  0  0  0
   -7.3666    5.8455   28.5488 C   0  0  0  0  0  0  0  0  0  0  0  0
   -8.6669    6.2428   28.4199 C   0  0  0  0  0  0  0  0  0  0  0  0
  -10.0479    3.5083   26.2510 C   0  0  2  0  0  0  0  0  0  0  0  0
  -10.4851    2.3915   26.4094 C   0  0  0  0  0  0  0  0  0  0  0  0
  -10.0216    1.7601   27.7461 C   0  0  0  0  0  0  0  0  0  0  0  0
  -10.4623    0.3921   28.1012 C   0  0  0  0  0  0  0  0  0  0  0  0
  -11.1548   -0.2872   27.1440 C   0  0  0  0  0  0  0  0  0  0  0  0
  -11.5113    0.2265   25.9172 C   0  0  0  0  0  0  0  0  0  0  0  0
  -11.1317    1.4946   25.5994 C   0  0  0  0  0  0  0  0  0  0  0  0
  -10.4054    4.2046   24.9414 C   0  0  0  0  0  0  0  0  0  0  0  0
  -10.8753    3.8526   23.8369 C   0  0  0  0  0  0  0  0  0  0  0  0
  -11.1946    4.8229   22.8753 C   0  0  0  0  0  0  0  0  0  0  0  0
  -11.8192    4.3861   21.6949 C   0  0  0  0  0  0  0  0  0  0  0  0
  -11.8931    3.2335   21.5218 C   0  0  0  0  0  0  0  0  0  0  0  0
  -11.5647    2.1485   22.3104 C   0  0  0  0  0  0  0  0  0  0  0  0
  -10.9726    2.5049   23.5335 C   0  0  0  0  0  0  0  0  0  0  0  0
  -11.2537    1.8998   24.2867 C   0  0  1  0  0  0  0  0  0  0  0  0
  -11.8967    0.5755   23.7412 O   0  0  0  0  0  0  0  0  0  0  0  0
  -12.1312    0.8725   22.2547 C   0  0  2  0  0  0  0  0  0  0  0  0
  -12.4074   -0.0396   21.4608 C   0  0  0  0  0  0  0  0  0  0  0  0
  -11.4790   -0.6370   20.6933 C   0  0  0  0  0  0  0  0  0  0  0  0
  -13.7551   -0.4083   21.2622 C   0  0  0  0  0  0  0  0  0  0  0  0
  -14.1480   -1.2834   20.3719 C   0  0  0  0  0  0  0  0  0  0  0  0
  -11.7919   -1.5778   19.6630 C   0  0  0  0  0  0  0  0  0  0  0  0
  -13.1567   -1.8991   19.5296 C   0  0  0  0  0  0  0  0  0  0  0  0
  -13.5400   -2.8528   18.5178 C   0  0  0  0  0  0  0  0  0  0  0  0
  -13.8582   -2.6588   17.4636 O   0  0  0  0  0  0  0  0  0  0  0  0
  -13.8270   -4.1667   19.0966 N   0  0  0  0  0  0  0  0  0  0  0  0
  -14.2752   -5.1877   18.2708 C   0  0  0  0  0  0  0  0  0  0  0  0
  -14.2947   -6.2109   18.7120 C   0  0  0  0  0  0  0  0  0  0  0  0
  -14.7433   -7.4343   17.9860 C   0  0  0  0  0  0  0  0  0  0  0  0
  -15.1525   -7.1899   16.6514 C   0  0  0  0  0  0  0  0  0  0  0  0
  -15.0971   -5.9034   16.1577 C   0  0  0  0  0  0  0  0  0  0  0  0
  -14.6687   -4.8572   16.9314 C   0  0  0  0  0  0  0  0  0  0  0  0
  -15.5318   -5.7058   14.7728 C   0  0  0  0  0  0  0  0  0  0  0  0
  -15.5533   -6.5711   13.9120 C   0  0  0  0  0  0  0  0  0  0  0  0
  7  2  1  6
  7 14  1  0
 13 21  1  0
 20 21  1  0
 21 22  1  6
 19 23  1  0
 22 23  1  0
 23 24  1  6
 29 30  1  0
 30 31  2  0
 30 32  1  0
 32 33  1  0
 37 39  1  0
 39 40  2  0
  7  8  1  0
 14 15  1  0
 15 16  2  0
 16 17  1  0
 17 18  2  0
 18 19  1  0
 19 20  2  0
 20 15  1  0
  1  2  2  0
  2  3  1  0
  3  6  2  0
  6  5  1  0
  5  4  2  0
  4  1  1  0
 33 34  2  0
 34 35  1  0
 35 36  2  0
 36 37  1  0
 37 38  2  0
 38 33  1  0
 24 25  2  0
 25 28  1  0
 28 29  2  0
 29 27  1  0
 27 26  2  0
 26 24  1  0
  8  9  2  0
  9 10  1  0
 10 11  2  0
 11 12  1  0
 12 13  2  0
 13  8  1  0
M  END
$$$$
