No_6549-complexes_sdf/6BKW-FPZ/2024-09-17-14-21-01/
     RDKit          3D

 12 12  0  0  0  0  0  0  0  0999 V2000
   -7.2496    3.8871   27.4508 C   0  0  0  0  0  0  0  0  0  0  0  0
   -7.9379    4.9063   27.8518 C   0  0  0  0  0  0  0  0  0  0  0  0
   -7.5112    6.1898   27.6280 C   0  0  0  0  0  0  0  0  0  0  0  0
   -7.4783    2.5435   27.5904 C   0  0  0  0  0  0  0  0  0  0  0  0
   -8.4841    2.0581   27.2694 C   0  0  0  0  0  0  0  0  0  0  0  0
   -9.6725    2.9830   27.5292 C   0  0  0  0  0  0  0  0  0  0  0  0
   -9.3931    4.3917   27.7691 C   0  0  0  0  0  0  0  0  0  0  0  0
  -11.0626    2.5583   27.6454 C   0  0  0  0  0  0  0  0  0  0  0  0
  -11.7156    2.4803   26.7405 C   0  0  0  0  0  0  0  0  0  0  0  0
  -11.3066    2.9048   25.4065 C   0  0  0  0  0  0  0  0  0  0  0  0
  -12.1325    2.9271   24.2343 C   0  0  0  0  0  0  0  0  0  0  0  0
  -13.4255    2.4873   24.4397 C   0  0  0  0  0  0  0  0  0  0  0  0
  6  8  1  0
  8  9  2  3
  9 10  1  0
 10 11  2  3
 11 12  1  0
  3  2  1  0
  1  2  2  0
  2  7  1  0
  7  6  2  0
  6  5  1  0
  5  4  2  0
  4  1  1  0
M  END
$$$$
