No_6837-complexes_sdf/6BKW-FPZ/2024-09-17-14-21-01/
     RDKit          3D

 18 19  0  0  0  0  0  0  0  0999 V2000
   -7.7129    4.2099   27.0854 C   0  0  0  0  0  0  0  0  0  0  0  0
   -8.9133    4.4736   27.0998 C   0  0  0  0  0  0  0  0  0  0  0  0
   -9.4643    5.5426   27.7628 C   0  0  0  0  0  0  0  0  0  0  0  0
   -6.8373    4.9942   27.9785 C   0  0  0  0  0  0  0  0  0  0  0  0
   -7.3717    6.0428   28.6744 C   0  0  0  0  0  0  0  0  0  0  0  0
   -8.6869    6.3937   28.5345 C   0  0  0  0  0  0  0  0  0  0  0  0
   -9.8077    3.6185   26.2213 C   0  0  0  0  0  0  0  0  0  0  0  0
   -9.9184    4.0253   24.8835 C   0  0  0  0  0  0  0  0  0  0  0  0
  -10.7962    3.5286   24.1974 C   0  0  0  0  0  0  0  0  0  0  0  0
  -11.6181    2.4953   24.5235 C   0  0  0  0  0  0  0  0  0  0  0  0
  -10.6295    2.6510   26.6744 C   0  0  0  0  0  0  0  0  0  0  0  0
  -11.5878    2.0227   25.8760 C   0  0  0  0  0  0  0  0  0  0  0  0
  -10.5328    2.2113   28.1257 C   0  0  1  0  0  0  0  0  0  0  0  0
  -10.9318    2.8758   29.0125 C   0  0  0  0  0  0  0  0  0  0  0  0
  -10.0228    0.8124   28.2415 C   0  0  0  0  0  0  0  0  0  0  0  0
   -8.8369    0.4416   27.6731 C   0  0  0  0  0  0  0  0  0  0  0  0
   -7.9486    1.2737   27.0998 C   0  0  0  0  0  0  0  0  0  0  0  0
   -6.6945    0.7241   26.6350 C   0  0  0  0  0  0  0  0  0  0  0  0
  2  7  1  0
 11 13  1  0
 13 14  1  6
 13 15  1  0
 15 16  1  0
 16 17  2  3
 17 18  1  0
  7  8  2  0
  8  9  1  0
  9 10  2  0
 10 12  1  0
 12 11  2  0
 11  7  1  0
  1  2  2  0
  2  3  1  0
  3  6  2  0
  6  5  1  0
  5  4  2  0
  4  1  1  0
M  END
$$$$
