No_645-complexes_sdf/6BKW-FPZ/2024-09-17-14-21-01/
     RDKit          3D

 31 35  0  0  0  0  0  0  0  0999 V2000
   -7.7129    4.2099   27.0854 C   0  0  0  0  0  0  0  0  0  0  0  0
   -7.7814    5.1722   27.8972 C   0  0  0  0  0  0  0  0  0  0  0  0
   -7.2983    2.9533   27.5684 C   0  0  0  0  0  0  0  0  0  0  0  0
   -7.6908    1.8111   26.9553 C   0  0  1  0  0  0  0  0  0  0  0  0
   -8.6533    1.9165   25.9430 C   0  0  0  0  0  0  0  0  0  0  0  0
   -9.2376    3.0581   25.6387 C   0  0  0  0  0  0  0  0  0  0  0  0
   -8.8901    4.1760   26.2867 C   0  0  0  0  0  0  0  0  0  0  0  0
   -8.2313    6.2997   27.8103 N   0  0  0  0  0  0  0  0  0  0  0  0
   -9.2230    6.6009   26.8506 C   0  0  0  0  0  0  0  0  0  0  0  0
   -9.5466    5.4580   26.0081 C   0  0  0  0  0  0  0  0  0  0  0  0
   -7.0270    0.5292   27.2091 C   0  0  0  0  0  0  0  0  0  0  0  0
   -5.8143    0.4773   27.9372 C   0  0  0  0  0  0  0  0  0  0  0  0
   -5.2118   -0.7378   28.2344 C   0  0  0  0  0  0  0  0  0  0  0  0
   -5.8581   -1.8861   27.8953 C   0  0  0  0  0  0  0  0  0  0  0  0
   -7.5311   -0.7339   27.0149 C   0  0  0  0  0  0  0  0  0  0  0  0
   -7.0416   -1.8847   27.3409 C   0  0  0  0  0  0  0  0  0  0  0  0
   -3.8702   -0.6784   28.9631 C   0  0  0  0  0  0  0  0  0  0  0  0
   -4.0646   -0.2027   30.3564 C   0  0  0  0  0  0  0  0  0  0  0  0
   -2.8347    0.1659   28.2738 C   0  0  0  0  0  0  0  0  0  0  0  0
   -3.3084   -2.1115   29.0977 C   0  0  0  0  0  0  0  0  0  0  0  0
   -3.3714   -0.7098   31.4610 C   0  0  0  0  0  0  0  0  0  0  0  0
   -2.5014   -2.4685   30.2068 C   0  0  0  0  0  0  0  0  0  0  0  0
   -2.6686   -1.8274   31.4554 C   0  0  0  0  0  0  0  0  0  0  0  0
   -2.7768    0.1461   26.8549 C   0  0  0  0  0  0  0  0  0  0  0  0
   -2.1260    1.1553   26.4222 F   0  0  0  0  0  0  0  0  0  0  0  0
   -3.9589    0.1016   26.2941 F   0  0  0  0  0  0  0  0  0  0  0  0
   -2.1100   -1.0621   26.5066 F   0  0  0  0  0  0  0  0  0  0  0  0
  -10.2343    3.0734   24.5445 C   0  0  0  0  0  0  0  0  0  0  0  0
  -10.2648    2.2498   23.5741 C   0  0  0  0  0  0  0  0  0  0  0  0
   -9.4743    1.0493   23.6818 C   0  0  0  0  0  0  0  0  0  0  0  0
   -8.7852    0.8497   24.9245 C   0  0  0  0  0  0  0  0  0  0  0  0
  1  3  1  0
  3  4  1  0
  4  5  1  0
  6  7  1  0
  4 11  1  6
 13 17  1  0
 17 18  1  0
 17 19  1  0
 17 20  1  0
 21 23  1  0
 22 23  1  0
 19 24  1  0
 24 25  1  0
 24 26  1  0
 24 27  1  0
 18 21  1  0
 22 20  1  0
  5  6  2  0
  6 28  1  0
 28 29  2  0
 29 30  1  0
 30 31  2  0
 31  5  1  0
  1  2  2  0
  2  8  1  0
  8  9  2  0
  9 10  1  0
 10  7  2  0
  7  1  1  0
 11 12  2  0
 12 13  1  0
 13 14  2  0
 14 16  1  0
 16 15  2  0
 15 11  1  0
M  END
$$$$
