No_6098-complexes_sdf/6BKW-FPZ/2024-09-17-14-21-01/
     RDKit          3D

 27 30  0  0  0  0  0  0  0  0999 V2000
   -7.9040    3.9820   27.1177 C   0  0  0  0  0  0  0  0  0  0  0  0
   -9.0711    4.3164   27.0630 C   0  0  0  0  0  0  0  0  0  0  0  0
   -9.9692    3.7224   26.1073 C   0  0  0  0  0  0  0  0  0  0  0  0
   -6.9787    4.6761   28.1003 C   0  0  0  0  0  0  0  0  0  0  0  0
   -9.4538    2.6801   25.3673 C   0  0  0  0  0  0  0  0  0  0  0  0
   -8.1927    2.1957   25.6621 C   0  0  0  0  0  0  0  0  0  0  0  0
   -7.4333    2.8255   26.6299 C   0  0  0  0  0  0  0  0  0  0  0  0
  -10.3181    2.0008   24.3846 C   0  0  0  0  0  0  0  0  0  0  0  0
  -10.7358    2.6411   23.3159 C   0  0  0  0  0  0  0  0  0  0  0  0
  -11.4735    2.0086   22.2438 C   0  0  0  0  0  0  0  0  0  0  0  0
  -11.6287    0.6012   22.3603 C   0  0  0  0  0  0  0  0  0  0  0  0
  -10.4396    0.6125   24.2797 C   0  0  0  0  0  0  0  0  0  0  0  0
  -11.0707   -0.0469   23.3408 C   0  0  0  0  0  0  0  0  0  0  0  0
   -6.9227    5.6493   28.3612 N   0  0  0  0  0  0  0  0  0  0  0  0
   -5.6925    3.9603   28.2241 N   0  0  0  0  0  0  0  0  0  0  0  0
  -10.6112    4.1654   23.1276 C   0  0  0  0  0  0  0  0  0  0  0  0
  -10.8187    4.7579   21.9049 C   0  0  0  0  0  0  0  0  0  0  0  0
  -11.4619    4.0303   20.8883 C   0  0  0  0  0  0  0  0  0  0  0  0
  -11.7803    2.6611   20.9956 C   0  0  0  0  0  0  0  0  0  0  0  0
  -12.3070    2.0174   19.8590 C   0  0  0  0  0  0  0  0  0  0  0  0
  -13.7236    1.9006   19.9378 C   0  0  0  0  0  0  0  0  0  0  0  0
  -14.4546    2.2576   20.8583 C   0  0  0  0  0  0  0  0  0  0  0  0
  -15.8744    2.0477   20.9081 C   0  0  0  0  0  0  0  0  0  0  0  0
  -16.4125    1.4785   19.7650 C   0  0  0  0  0  0  0  0  0  0  0  0
  -14.3499    1.2072   18.7921 C   0  0  0  0  0  0  0  0  0  0  0  0
  -15.6806    1.0378   18.7488 C   0  0  0  0  0  0  0  0  0  0  0  0
  -11.5269    1.5165   19.0213 O   0  0  0  0  0  0  0  0  0  0  0  0
  1  4  1  0
  5  8  1  0
  4 14  2  0
  4 15  1  0
 19 20  1  0
 20 21  1  0
 20 27  2  0
 21 22  2  0
 22 23  1  0
 23 24  2  0
 24 26  1  0
 26 25  2  0
 25 21  1  0
 10 19  1  0
 19 18  2  0
 18 17  1  0
 17 16  2  0
 16  9  1  0
  8  9  2  0
  9 10  1  0
 10 11  2  0
 11 13  1  0
 13 12  2  0
 12  8  1  0
  1  2  2  0
  2  3  1  0
  3  5  2  0
  5  6  1  0
  6  7  2  0
  7  1  1  0
M  END
$$$$
