No_6006-complexes_sdf/6BKW-FPZ/2024-09-17-14-21-01/
     RDKit          3D

 40 43  0  0  0  0  0  0  0  0999 V2000
   -7.9040    3.9820   27.1177 C   0  0  0  0  0  0  0  0  0  0  0  0
   -8.2057    2.8231   26.8733 C   0  0  0  0  0  0  0  0  0  0  0  0
   -7.0130    4.3706   28.1140 C   0  0  0  0  0  0  0  0  0  0  0  0
   -7.4093    1.7370   27.3857 C   0  0  0  0  0  0  0  0  0  0  0  0
   -6.1943    2.1490   28.0403 C   0  0  0  0  0  0  0  0  0  0  0  0
   -5.9708    3.4680   28.3199 C   0  0  0  0  0  0  0  0  0  0  0  0
   -8.8163    5.2629   26.7932 C   0  0  0  0  0  0  0  0  0  0  0  0
   -9.9436    5.3573   26.9755 O   0  0  0  0  0  0  0  0  0  0  0  0
   -8.1848    6.2682   26.1331 O   0  0  0  0  0  0  0  0  0  0  0  0
   -5.2481    1.0600   28.3989 C   0  0  0  0  0  0  0  0  0  0  0  0
   -4.5080    0.4838   27.6293 C   0  0  0  0  0  0  0  0  0  0  0  0
   -3.5040   -0.5023   28.0573 C   0  0  0  0  0  0  0  0  0  0  0  0
   -3.3225   -0.7341   29.4328 C   0  0  0  0  0  0  0  0  0  0  0  0
   -4.1824   -0.0389   30.3082 C   0  0  0  0  0  0  0  0  0  0  0  0
   -5.0269    0.8999   29.8349 C   0  0  0  0  0  0  0  0  0  0  0  0
   -4.0005   -0.2021   31.7667 C   0  0  0  0  0  0  0  0  0  0  0  0
   -4.8060   -0.2089   32.5359 O   0  0  0  0  0  0  0  0  0  0  0  0
   -2.6398   -0.1378   32.2496 N   0  0  0  0  0  0  0  0  0  0  0  0
   -2.2991   -0.3413   33.6406 C   0  0  0  0  0  0  0  0  0  0  0  0
   -1.0310   -1.0101   33.7867 C   0  0  2  0  0  0  0  0  0  0  0  0
   -0.2538   -0.4756   34.6211 O   0  0  0  0  0  0  0  0  0  0  0  0
    1.0926   -0.8556   34.7257 C   0  0  0  0  0  0  0  0  0  0  0  0
    1.3483   -1.7242   33.8551 C   0  0  0  0  0  0  0  0  0  0  0  0
    0.5271   -2.2404   32.9037 C   0  0  0  0  0  0  0  0  0  0  0  0
   -0.7395   -1.8240   32.8380 C   0  0  0  0  0  0  0  0  0  0  0  0
    1.8251   -0.2058   35.7787 C   0  0  0  0  0  0  0  0  0  0  0  0
    1.1511   -0.0751   37.2572 Cl  0  0  0  0  0  0  0  0  0  0  0  0
    3.0074   -0.7780   35.9900 F   0  0  0  0  0  0  0  0  0  0  0  0
    2.2025    1.0897   35.3308 F   0  0  0  0  0  0  0  0  0  0  0  0
   -2.6119   -1.1523   27.0620 C   0  0  0  0  0  0  0  0  0  0  0  0
   -3.0472   -1.2225   25.8959 N   0  0  0  0  0  0  0  0  0  0  0  0
   -3.9960   -2.1021   25.4792 C   0  0  0  0  0  0  0  0  0  0  0  0
   -3.7824   -3.3323   25.7185 C   0  0  0  0  0  0  0  0  0  0  0  0
   -4.7759   -4.3553   25.3955 C   0  0  0  0  0  0  0  0  0  0  0  0
   -5.9334   -3.9138   24.7619 C   0  0  0  0  0  0  0  0  0  0  0  0
   -6.1420   -2.5474   24.4713 C   0  0  0  0  0  0  0  0  0  0  0  0
   -5.1853   -1.6146   24.8560 C   0  0  0  0  0  0  0  0  0  0  0  0
   -7.3898   -2.1415   23.7986 C   0  0  0  0  0  0  0  0  0  0  0  0
   -7.6218   -2.4118   22.6220 C   0  0  0  0  0  0  0  0  0  0  0  0
   -8.7757   -1.9250   21.8228 C   0  0  0  0  0  0  0  0  0  0  0  0
  1  7  1  0
  7  8  2  0
  7  9  1  0
  5 10  1  0
 14 16  1  0
 16 17  2  0
 16 18  1  0
 18 19  1  0
 20 19  1  6
 20 21  1  0
 21 22  1  0
 22 23  2  0
 23 24  1  0
 20 25  1  0
 24 25  2  0
 22 26  1  0
 26 27  1  0
 26 28  1  0
 26 29  1  0
 12 30  1  0
 30 31  1  0
 31 32  1  0
 36 38  1  0
 38 39  2  3
 39 40  1  0
  1  2  2  0
  2  4  1  0
  4  5  2  0
  5  6  1  0
  6  3  2  0
  3  1  1  0
 32 33  2  0
 33 34  1  0
 34 35  2  0
 35 36  1  0
 36 37  2  0
 37 32  1  0
 10 11  2  0
 11 12  1  0
 12 13  2  0
 13 14  1  0
 14 15  2  0
 15 10  1  0
M  END
$$$$
