No_6891-complexes_sdf/6BKW-FPZ/2024-09-17-14-21-01/
     RDKit          3D

 38 42  0  0  0  0  0  0  0  0999 V2000
   -7.7129    4.2099   27.0854 C   0  0  0  0  0  0  0  0  0  0  0  0
   -7.7814    5.1722   27.8972 C   0  0  0  0  0  0  0  0  0  0  0  0
   -8.8776    3.8408   26.3416 C   0  0  0  0  0  0  0  0  0  0  0  0
   -9.9844    4.6492   26.4743 C   0  0  0  0  0  0  0  0  0  0  0  0
   -8.7830    6.1594   27.8870 C   0  0  0  0  0  0  0  0  0  0  0  0
   -9.9269    5.8191   27.1183 C   0  0  0  0  0  0  0  0  0  0  0  0
   -8.8618    2.6242   25.5633 C   0  0  0  0  0  0  0  0  0  0  0  0
   -8.2819    1.4836   26.1793 C   0  0  0  0  0  0  0  0  0  0  0  0
   -8.7380    0.5980   26.3252 C   0  0  0  0  0  0  0  0  0  0  0  0
   -8.0674   -0.6225   27.0312 C   0  0  0  0  0  0  0  0  0  0  0  0
   -6.8035   -0.3946   27.5312 C   0  0  0  0  0  0  0  0  0  0  0  0
   -6.2074    0.8362   27.3665 C   0  0  0  0  0  0  0  0  0  0  0  0
   -6.9134    1.8726   26.8012 C   0  0  0  0  0  0  0  0  0  0  0  0
   -6.8386    3.0965   27.3531 N   0  0  0  0  0  0  0  0  0  0  0  0
  -11.1318    4.4248   25.6128 C   0  0  0  0  0  0  0  0  0  0  0  0
   -6.0853   -1.5334   28.2120 C   0  0  0  0  0  0  0  0  0  0  0  0
   -4.9221   -1.2938   28.7083 N   0  0  0  0  0  0  0  0  0  0  0  0
   -4.4096   -0.5513   29.3949 C   0  0  1  0  0  0  0  0  0  0  0  0
   -4.7761   -0.0126   30.4528 N   0  0  0  0  0  0  0  0  0  0  0  0
   -3.0657   -0.2190   29.2524 N   0  0  0  0  0  0  0  0  0  0  0  0
   -4.1816    0.2321   31.5501 C   0  0  0  0  0  0  0  0  0  0  0  0
   -2.3366   -0.5629   28.1293 C   0  0  0  0  0  0  0  0  0  0  0  0
   -3.8788   -1.5593   27.4716 C   0  0  1  0  0  0  0  0  0  0  0  0
   -2.7237   -1.3686   27.2728 C   0  0  0  0  0  0  0  0  0  0  0  0
   -4.5393   -2.3969   26.3777 N   0  0  0  0  0  0  0  0  0  0  0  0
   -4.4179   -2.0866   25.1146 C   0  0  2  0  0  0  0  0  0  0  0  0
   -4.4770   -3.7862   26.6234 C   0  0  0  0  0  0  0  0  0  0  0  0
   -5.0772   -4.4847   26.0485 C   0  0  0  0  0  0  0  0  0  0  0  0
   -4.9811   -0.8131   24.7602 C   0  0  0  0  0  0  0  0  0  0  0  0
   -5.0126   -3.0954   24.2190 C   0  0  0  0  0  0  0  0  0  0  0  0
   -4.7814   -4.4394   24.4877 C   0  0  2  0  0  0  0  0  0  0  0  0
   -5.5699   -5.3617   23.7418 N   0  0  0  0  0  0  0  0  0  0  0  0
   -5.3257   -5.8058   22.6414 C   0  0  0  0  0  0  0  0  0  0  0  0
   -4.1341   -5.3790   22.0527 C   0  0  0  0  0  0  0  0  0  0  0  0
   -4.0281   -5.2079   20.6829 C   0  0  0  0  0  0  0  0  0  0  0  0
   -2.8767   -4.5338   20.1506 C   0  0  0  0  0  0  0  0  0  0  0  0
   -1.7083   -4.3671   20.9148 C   0  0  0  0  0  0  0  0  0  0  0  0
   -1.8028   -4.6200   22.2857 C   0  0  0  0  0  0  0  0  0  0  0  0
  3  7  1  0
  7  8  1  0
  1 14  1  0
 13 14  1  0
  4 15  1  0
 11 16  1  0
 16 17  1  0
 17 18  1  0
 18 19  1  1
 19 21  1  0
 20 22  1  0
 17 23  1  0
 23 24  1  0
 23 25  1  1
 25 26  1  0
 25 27  1  0
 26 29  1  1
 26 30  1  0
 28 31  1  0
 30 31  1  0
 31 32  1  6
 32 33  1  0
 33 34  2  3
 34 35  1  0
 35 36  2  3
 36 37  1  0
 37 38  2  0
 18 20  1  0
 22 24  1  0
 28 27  1  0
  1  2  2  0
  2  5  1  0
  5  6  2  0
  6  4  1  0
  4  3  2  0
  3  1  1  0
  8  9  2  0
  9 10  1  0
 10 11  2  0
 11 12  1  0
 12 13  2  0
 13  8  1  0
M  END
$$$$
