No_6544-complexes_sdf/6BKW-FPZ/2024-09-17-14-21-01/
     RDKit          3D

 32 36  0  0  0  0  0  0  0  0999 V2000
   -7.7129    4.2099   27.0854 C   0  0  0  0  0  0  0  0  0  0  0  0
   -7.7814    5.1722   27.8972 C   0  0  0  0  0  0  0  0  0  0  0  0
   -7.2983    2.9533   27.5684 C   0  0  0  0  0  0  0  0  0  0  0  0
   -7.6908    1.8111   26.9553 C   0  0  1  0  0  0  0  0  0  0  0  0
   -8.6533    1.9165   25.9430 C   0  0  0  0  0  0  0  0  0  0  0  0
   -9.2376    3.0581   25.6387 C   0  0  0  0  0  0  0  0  0  0  0  0
   -8.8901    4.1760   26.2867 C   0  0  0  0  0  0  0  0  0  0  0  0
   -8.2313    6.2997   27.8103 N   0  0  0  0  0  0  0  0  0  0  0  0
   -9.2168    6.5979   26.8458 C   0  0  0  0  0  0  0  0  0  0  0  0
   -9.5483    5.4532   26.0021 C   0  0  0  0  0  0  0  0  0  0  0  0
   -7.0321    0.5341   27.2088 C   0  0  0  0  0  0  0  0  0  0  0  0
   -7.6536   -0.5893   27.2208 N   0  0  0  0  0  0  0  0  0  0  0  0
   -8.7554   -0.7886   27.4104 C   0  0  0  0  0  0  0  0  0  0  0  0
   -9.3409   -2.1100   27.6208 C   0  0  0  0  0  0  0  0  0  0  0  0
   -7.0899   -1.7102   26.4830 C   0  0  0  0  0  0  0  0  0  0  0  0
   -7.5062   -2.9530   26.6190 C   0  0  0  0  0  0  0  0  0  0  0  0
   -8.7653   -3.1426   27.1193 C   0  0  0  0  0  0  0  0  0  0  0  0
   -5.7959    0.6126   27.6960 O   0  0  0  0  0  0  0  0  0  0  0  0
  -10.2452    3.0413   24.5622 C   0  0  0  0  0  0  0  0  0  0  0  0
  -11.3971    3.5972   24.7470 C   0  0  0  0  0  0  0  0  0  0  0  0
  -12.4046    3.3780   24.1001 C   0  0  0  0  0  0  0  0  0  0  0  0
  -12.2478    2.6205   22.8739 C   0  0  0  0  0  0  0  0  0  0  0  0
  -11.0488    1.9981   22.6191 C   0  0  0  0  0  0  0  0  0  0  0  0
  -10.0205    2.1406   23.5392 C   0  0  0  0  0  0  0  0  0  0  0  0
   -9.2742   -4.3401   27.2787 F   0  0  0  0  0  0  0  0  0  0  0  0
  -13.7531    4.1042   24.1673 C   0  0  0  0  0  0  0  0  0  0  0  0
  -14.1277    4.2859   25.5442 C   0  0  0  0  0  0  0  0  0  0  0  0
  -15.1366    5.1680   25.8381 C   0  0  0  0  0  0  0  0  0  0  0  0
  -15.4655    5.5017   27.2023 C   0  0  0  0  0  0  0  0  0  0  0  0
  -14.6564    4.9389   28.2346 C   0  0  0  0  0  0  0  0  0  0  0  0
  -13.6080    4.0959   27.9138 C   0  0  0  0  0  0  0  0  0  0  0  0
  -13.2760    3.8306   26.5710 C   0  0  0  0  0  0  0  0  0  0  0  0
  1  3  1  0
  3  4  1  0
  4  5  1  0
  5  6  1  0
  6  7  1  0
  4 11  1  6
 11 12  1  0
 12 13  1  0
 12 15  1  0
 14 17  1  0
 16 17  1  0
 11 18  2  0
  6 19  1  0
 17 25  1  0
 21 26  1  0
 26 27  1  0
 13 14  1  0
 16 15  1  0
  1  2  2  0
  2  8  1  0
  8  9  2  0
  9 10  1  0
 10  7  2  0
  7  1  1  0
 19 20  2  0
 20 21  1  0
 21 22  2  0
 22 23  1  0
 23 24  2  0
 24 19  1  0
 27 28  2  0
 28 29  1  0
 29 30  2  0
 30 31  1  0
 31 32  2  0
 32 27  1  0
M  END
$$$$
