No_6089-complexes_sdf/6BKW-FPZ/2024-09-17-14-21-01/
     RDKit          3D

 25 25  0  0  0  0  0  0  0  0999 V2000
   -7.9040    3.9820   27.1177 C   0  0  0  0  0  0  0  0  0  0  0  0
   -7.8663    4.8694   27.9238 C   0  0  0  0  0  0  0  0  0  0  0  0
   -9.0501    3.8017   26.2617 C   0  0  0  0  0  0  0  0  0  0  0  0
  -10.0189    4.7608   26.3707 C   0  0  0  0  0  0  0  0  0  0  0  0
   -8.6770    5.9780   27.9222 C   0  0  0  0  0  0  0  0  0  0  0  0
   -9.8040    5.8752   27.0958 C   0  0  0  0  0  0  0  0  0  0  0  0
   -9.1572    2.4596   25.2621 Cl  0  0  0  0  0  0  0  0  0  0  0  0
   -6.9934    2.9103   27.1303 O   0  0  0  0  0  0  0  0  0  0  0  0
   -6.1134    2.8480   28.1195 C   0  0  0  0  0  0  0  0  0  0  0  0
   -4.8991    2.6878   27.5085 C   0  0  0  0  0  0  0  0  0  0  0  0
   -4.0945    1.5262   28.3485 C   0  0  0  0  0  0  0  0  0  0  0  0
   -4.5349    0.4385   27.8885 O   0  0  0  0  0  0  0  0  0  0  0  0
   -4.0188   -0.6068   27.9894 C   0  0  0  0  0  0  0  0  0  0  0  0
   -4.7594   -1.7225   27.9530 C   0  0  0  0  0  0  0  0  0  0  0  0
   -6.0847   -1.5264   28.3431 C   0  0  1  0  0  0  0  0  0  0  0  0
   -6.7671   -0.6055   27.5051 C   0  0  0  0  0  0  0  0  0  0  0  0
   -5.7450   -0.1309   26.0983 Br  0  0  0  0  0  0  0  0  0  0  0  0
   -7.0165   -2.7147   28.5134 N   0  0  0  0  0  0  0  0  0  0  0  0
   -7.7647   -2.8710   29.6217 C   0  0  0  0  0  0  0  0  0  0  0  0
   -7.7106   -1.9187   30.6988 C   0  0  0  0  0  0  0  0  0  0  0  0
   -8.3511   -2.2699   31.9167 C   0  0  0  0  0  0  0  0  0  0  0  0
   -7.9933   -1.7502   33.1424 C   0  0  0  0  0  0  0  0  0  0  0  0
   -8.5106   -2.2832   34.3301 C   0  0  0  0  0  0  0  0  0  0  0  0
   -9.5605   -3.2389   34.2440 C   0  0  0  0  0  0  0  0  0  0  0  0
   -9.9464   -3.7025   33.0020 C   0  0  0  0  0  0  0  0  0  0  0  0
  3  7  1  0
  1  8  1  0
  8  9  1  0
  9 10  1  0
 10 11  1  0
 11 12  1  0
 12 13  1  0
 13 14  1  0
 15 14  1  6
 15 16  1  0
 16 17  1  0
 15 18  1  0
 18 19  1  0
 19 20  2  3
 20 21  1  0
 21 22  2  3
 22 23  1  0
 23 24  2  3
 24 25  1  0
  1  2  2  0
  2  5  1  0
  5  6  2  0
  6  4  1  0
  4  3  2  0
  3  1  1  0
M  END
$$$$
