No_6566-complexes_sdf/6BKW-FPZ/2024-09-17-14-21-01/
     RDKit          3D

 17 19  0  0  0  0  0  0  0  0999 V2000
   -7.9040    3.9820   27.1177 C   0  0  0  0  0  0  0  0  0  0  0  0
   -9.0711    4.3164   27.0630 C   0  0  0  0  0  0  0  0  0  0  0  0
   -9.5182    5.5541   27.5777 C   0  0  0  0  0  0  0  0  0  0  0  0
   -6.9424    4.7983   27.8424 C   0  0  0  0  0  0  0  0  0  0  0  0
   -7.3526    5.9739   28.3909 C   0  0  0  0  0  0  0  0  0  0  0  0
   -8.6479    6.3742   28.2170 C   0  0  0  0  0  0  0  0  0  0  0  0
  -10.0621    3.4422   26.3345 C   0  0  0  0  0  0  0  0  0  0  0  0
   -9.6335    2.6185   25.4370 C   0  0  0  0  0  0  0  0  0  0  0  0
   -8.2527    2.5177   25.2263 C   0  0  0  0  0  0  0  0  0  0  0  0
   -7.4085    2.9853   26.2641 N   0  0  0  0  0  0  0  0  0  0  0  0
  -10.4536    1.8585   24.5446 C   0  0  0  0  0  0  0  0  0  0  0  0
  -10.0367    1.3142   23.5052 C   0  0  0  0  0  0  0  0  0  0  0  0
  -10.8340    0.6825   22.5474 C   0  0  0  0  0  0  0  0  0  0  0  0
  -12.1841    0.5948   22.8014 C   0  0  0  0  0  0  0  0  0  0  0  0
  -12.6552    1.1740   23.9171 C   0  0  0  0  0  0  0  0  0  0  0  0
  -11.8623    1.8765   24.7854 C   0  0  0  0  0  0  0  0  0  0  0  0
  -14.3667    1.1159   24.1722 Cl  0  0  0  0  0  0  0  0  0  0  0  0
  8 11  1  0
 15 17  1  0
  2  7  1  0
  7  8  2  0
  8  9  1  0
  9 10  2  0
 10  1  1  0
 11 12  2  0
 12 13  1  0
 13 14  2  0
 14 15  1  0
 15 16  2  0
 16 11  1  0
  1  2  1  0
  2  3  2  0
  3  6  1  0
  6  5  2  0
  5  4  1  0
  4  1  2  0
M  END
$$$$
