No_6591-complexes_sdf/6BKW-FPZ/2024-09-17-14-21-01/
     RDKit          3D

 21 23  0  0  0  0  0  0  0  0999 V2000
   -7.9040    3.9820   27.1177 C   0  0  0  0  0  0  0  0  0  0  0  0
   -9.0711    4.3164   27.0630 C   0  0  0  0  0  0  0  0  0  0  0  0
   -9.5182    5.5541   27.5777 C   0  0  0  0  0  0  0  0  0  0  0  0
   -6.9424    4.7983   27.8424 C   0  0  0  0  0  0  0  0  0  0  0  0
   -7.3526    5.9739   28.3909 C   0  0  0  0  0  0  0  0  0  0  0  0
   -8.6479    6.3742   28.2169 C   0  0  0  0  0  0  0  0  0  0  0  0
  -10.0793    3.4689   26.3368 C   0  0  1  0  0  0  0  0  0  0  0  0
  -10.8065    3.4472   25.6317 C   0  0  0  0  0  0  0  0  0  0  0  0
  -11.2081    3.0863   24.7658 C   0  0  0  0  0  0  0  0  0  0  0  0
  -12.2812    3.5630   23.7598 C   0  0  0  0  0  0  0  0  0  0  0  0
  -10.4908    2.0870   23.8898 C   0  0  0  0  0  0  0  0  0  0  0  0
  -10.0037    1.0642   24.5167 C   0  0  0  0  0  0  0  0  0  0  0  0
   -9.6860    1.0127   25.6501 C   0  0  0  0  0  0  0  0  0  0  0  0
   -9.2311    2.0875   26.5149 C   0  0  0  0  0  0  0  0  0  0  0  0
  -12.1075    4.1013   22.6723 C   0  0  0  0  0  0  0  0  0  0  0  0
  -10.9492    3.5376   21.8740 C   0  0  0  0  0  0  0  0  0  0  0  0
  -10.3960    2.2932   22.4203 C   0  0  0  0  0  0  0  0  0  0  0  0
   -8.0794    2.0489   27.2601 C   0  0  0  0  0  0  0  0  0  0  0  0
   -7.2825    3.7234   25.9858 F   0  0  0  0  0  0  0  0  0  0  0  0
   -8.5811    1.3695   28.2483 C   0  0  0  0  0  0  0  0  0  0  0  0
   -6.8542    1.5306   26.6991 C   0  0  0  0  0  0  0  0  0  0  0  0
  7  2  1  6
  7  8  1  0
 12 13  1  0
  7 14  1  0
 13 14  2  0
 14 18  1  0
  1 19  1  0
 18 20  1  0
 18 21  1  0
  8  9  1  0
 12 11  1  0
  9 10  2  0
 10 15  1  0
 15 16  2  0
 16 17  1  0
 17 11  2  0
 11  9  1  0
  1  2  2  0
  2  3  1  0
  3  6  2  0
  6  5  1  0
  5  4  2  0
  4  1  1  0
M  END
$$$$
