No_6887-complexes_sdf/6BKW-FPZ/2024-09-17-14-21-01/
     RDKit          3D

 23 26  0  0  0  0  0  0  0  0999 V2000
   -7.7129    4.2099   27.0854 C   0  0  0  0  0  0  0  0  0  0  0  0
   -8.2112    3.0637   26.9225 C   0  0  0  0  0  0  0  0  0  0  0  0
   -7.0021    4.5281   28.2396 C   0  0  0  0  0  0  0  0  0  0  0  0
   -9.4237    2.7810   26.2714 C   0  0  0  0  0  0  0  0  0  0  0  0
   -9.8631    3.8236   25.4749 C   0  0  0  0  0  0  0  0  0  0  0  0
   -9.3184    5.1096   25.5970 C   0  0  0  0  0  0  0  0  0  0  0  0
   -8.4527    5.3549   26.5253 C   0  0  0  0  0  0  0  0  0  0  0  0
  -10.9762    3.5758   24.5102 C   0  0  0  0  0  0  0  0  0  0  0  0
  -10.7960    3.9482   23.2369 C   0  0  0  0  0  0  0  0  0  0  0  0
  -12.1335    2.9798   24.9245 C   0  0  0  0  0  0  0  0  0  0  0  0
  -11.6467    3.7435   22.1810 C   0  0  0  0  0  0  0  0  0  0  0  0
  -13.1096    2.7216   23.8936 C   0  0  0  0  0  0  0  0  0  0  0  0
  -12.8548    3.1445   22.5878 C   0  0  0  0  0  0  0  0  0  0  0  0
   -7.7878    6.6083   26.9734 C   0  0  0  0  0  0  0  0  0  0  0  0
   -6.7487    5.7379   28.7609 N   0  0  0  0  0  0  0  0  0  0  0  0
   -7.1403    6.7491   28.0958 N   0  0  0  0  0  0  0  0  0  0  0  0
   -8.3468    7.8166   26.4560 N   0  0  0  0  0  0  0  0  0  0  0  0
  -13.8036    2.9200   21.6287 O   0  0  0  0  0  0  0  0  0  0  0  0
  -14.9414    3.0819   21.7186 C   0  0  0  0  0  0  0  0  0  0  0  0
  -15.5635    3.4120   22.7870 C   0  0  0  0  0  0  0  0  0  0  0  0
  -14.7092    3.1111   24.0803 C   0  0  2  0  0  0  0  0  0  0  0  0
  -15.1627    3.1916   25.4403 C   0  0  0  0  0  0  0  0  0  0  0  0
  -14.3945    2.9277   26.4289 C   0  0  0  0  0  0  0  0  0  0  0  0
  5  8  1  0
 14 17  1  0
 13 18  1  0
 18 19  1  0
 19 20  2  0
 12 21  1  0
 20 21  1  0
 21 22  1  1
 22 23  2  0
  8  9  2  0
  9 11  1  0
 11 13  2  0
 13 12  1  0
 12 10  2  0
 10  8  1  0
  1  3  1  0
  3 15  2  0
 15 16  1  0
 16 14  2  0
 14  7  1  0
  1  2  2  0
  2  4  1  0
  4  5  2  0
  5  6  1  0
  6  7  2  0
  7  1  1  0
M  END
$$$$
