No_6599-complexes_sdf/6BKW-FPZ/2024-09-17-14-21-01/
     RDKit          3D

 15 15  0  0  0  0  0  0  0  0999 V2000
   -7.2496    3.8871   27.4508 C   0  0  0  0  0  0  0  0  0  0  0  0
   -8.5096    4.0291   27.2770 C   0  0  0  0  0  0  0  0  0  0  0  0
   -9.3502    2.8685   26.8763 C   0  0  0  0  0  0  0  0  0  0  0  0
   -6.6288    2.5513   27.4938 C   0  0  0  0  0  0  0  0  0  0  0  0
   -7.4365    1.4714   27.2032 C   0  0  0  0  0  0  0  0  0  0  0  0
   -8.7772    1.6579   26.9338 C   0  0  0  0  0  0  0  0  0  0  0  0
   -9.1078    5.3660   27.2249 C   0  0  0  0  0  0  0  0  0  0  0  0
  -10.3243    5.4180   27.6589 F   0  0  0  0  0  0  0  0  0  0  0  0
   -9.0374    5.9352   25.9723 F   0  0  0  0  0  0  0  0  0  0  0  0
   -8.3350    6.3034   27.9535 F   0  0  0  0  0  0  0  0  0  0  0  0
   -6.9963    0.1102   27.1658 C   0  0  0  0  0  0  0  0  0  0  0  0
   -7.7454   -0.7580   27.1249 F   0  0  0  0  0  0  0  0  0  0  0  0
   -6.1372    0.0023   28.3210 F   0  0  0  0  0  0  0  0  0  0  0  0
   -6.0417    0.0345   26.1742 F   0  0  0  0  0  0  0  0  0  0  0  0
  -10.5765    3.0466   26.6541 F   0  0  0  0  0  0  0  0  0  0  0  0
  2  7  1  0
  7  8  1  0
  7  9  1  0
  7 10  1  0
  5 11  1  0
 11 12  1  0
 11 13  1  0
 11 14  1  0
  3 15  1  0
  1  2  2  0
  2  3  1  0
  3  6  2  0
  6  5  1  0
  5  4  2  0
  4  1  1  0
M  END
$$$$
