No_6723-complexes_sdf/6BKW-FPZ/2024-09-17-14-21-01/
     RDKit          3D

 13 14  0  0  0  0  0  0  0  0999 V2000
   -7.7129    4.2099   27.0854 C   0  0  0  0  0  0  0  0  0  0  0  0
   -7.7814    5.1722   27.8972 C   0  0  0  0  0  0  0  0  0  0  0  0
   -8.8776    3.8408   26.3416 C   0  0  0  0  0  0  0  0  0  0  0  0
   -9.9844    4.6492   26.4743 C   0  0  0  0  0  0  0  0  0  0  0  0
   -8.8033    6.1375   27.8728 C   0  0  0  0  0  0  0  0  0  0  0  0
   -9.9554    5.8281   27.1736 C   0  0  0  0  0  0  0  0  0  0  0  0
   -9.1013    2.7323   25.5969 N   0  0  0  0  0  0  0  0  0  0  0  0
   -8.4906    1.5870   25.8810 C   0  0  0  0  0  0  0  0  0  0  0  0
   -8.5898    0.5076   24.9674 C   0  0  0  0  0  0  0  0  0  0  0  0
   -9.7642    2.7704   24.3994 C   0  0  0  0  0  0  0  0  0  0  0  0
   -9.8937    1.7835   23.5408 C   0  0  0  0  0  0  0  0  0  0  0  0
   -9.2301    0.6184   23.8368 C   0  0  0  0  0  0  0  0  0  0  0  0
  -10.3152    4.0446   24.3141 N   0  0  0  0  0  0  0  0  0  0  0  0
  3  7  1  0
  7  8  1  0
  7 10  1  0
  9 12  1  0
 11 12  1  0
 10 13  1  0
  8  9  1  0
 11 10  1  0
  1  2  2  0
  2  5  1  0
  5  6  2  0
  6  4  1  0
  4  3  2  0
  3  1  1  0
M  END
$$$$
