No_692-complexes_sdf/6BKW-FPZ/2024-09-17-14-21-01/
     RDKit          3D

 12 13  0  0  0  0  0  0  0  0999 V2000
   -7.2496    3.8871   27.4508 C   0  0  0  0  0  0  0  0  0  0  0  0
   -8.5096    4.0291   27.2770 C   0  0  0  0  0  0  0  0  0  0  0  0
   -9.2677    5.1714   27.5773 C   0  0  0  0  0  0  0  0  0  0  0  0
   -9.2765    2.8248   26.8371 C   0  0  0  0  0  0  0  0  0  0  0  0
   -8.6731    1.7312   26.5464 C   0  0  0  0  0  0  0  0  0  0  0  0
   -6.4415    5.0016   28.0598 C   0  0  0  0  0  0  0  0  0  0  0  0
   -7.2423    1.5658   26.8664 C   0  0  0  0  0  0  0  0  0  0  0  0
   -6.5396    2.6388   27.3455 C   0  0  0  0  0  0  0  0  0  0  0  0
   -9.3089    6.1997   26.5421 C   0  0  0  0  0  0  0  0  0  0  0  0
   -8.1453    6.7869   26.4034 C   0  0  0  0  0  0  0  0  0  0  0  0
   -7.2697    6.9450   27.6351 C   0  0  0  0  0  0  0  0  0  0  0  0
   -6.8228    5.7375   28.2462 C   0  0  0  0  0  0  0  0  0  0  0  0
  2  3  1  0
  1  6  1  0
  3  9  1  0
  9 10  1  0
 10 11  1  0
  6 12  1  0
 11 12  1  0
  1  2  2  0
  2  4  1  0
  4  5  2  0
  5  7  1  0
  7  8  2  0
  8  1  1  0
M  END
$$$$
