No_6143-complexes_sdf/6BKW-FPZ/2024-09-17-14-21-01/
     RDKit          3D

 35 38  0  0  0  0  0  0  0  0999 V2000
   -7.9040    3.9820   27.1177 C   0  0  0  0  0  0  0  0  0  0  0  0
   -7.8663    4.8694   27.9238 C   0  0  0  0  0  0  0  0  0  0  0  0
   -9.0806    3.1428   27.1220 C   0  0  1  0  0  0  0  0  0  0  0  0
   -8.9544    1.8782   26.5467 C   0  0  0  0  0  0  0  0  0  0  0  0
   -6.7151    5.8072   27.9111 C   0  0  0  0  0  0  0  0  0  0  0  0
   -9.6830    1.5813   25.4472 C   0  0  0  0  0  0  0  0  0  0  0  0
  -10.6877    0.7542   25.6431 C   0  0  0  0  0  0  0  0  0  0  0  0
  -10.2488    3.4961   27.7302 C   0  0  0  0  0  0  0  0  0  0  0  0
  -10.9714    2.6894   28.4399 C   0  0  0  0  0  0  0  0  0  0  0  0
  -12.3474    2.9549   28.5628 C   0  0  0  0  0  0  0  0  0  0  0  0
  -13.2093    2.0843   29.2435 C   0  0  0  0  0  0  0  0  0  0  0  0
   -9.4358    2.3347   24.2410 C   0  0  0  0  0  0  0  0  0  0  0  0
  -10.0468    1.9939   23.0329 C   0  0  0  0  0  0  0  0  0  0  0  0
  -11.3144    0.2735   24.3089 C   0  0  0  0  0  0  0  0  0  0  0  0
  -11.0489    1.0107   23.0506 C   0  0  0  0  0  0  0  0  0  0  0  0
  -12.8754    4.2212   28.1390 C   0  0  0  0  0  0  0  0  0  0  0  0
  -10.6078    4.9482   27.6007 C   0  0  0  0  0  0  0  0  0  0  0  0
  -12.0048    5.2282   27.6540 C   0  0  0  0  0  0  0  0  0  0  0  0
  -13.2883    1.0069   29.1466 N   0  0  0  0  0  0  0  0  0  0  0  0
  -12.6319    0.3098   28.2283 C   0  0  0  0  0  0  0  0  0  0  0  0
  -12.4383   -1.0289   28.5646 C   0  0  0  0  0  0  0  0  0  0  0  0
  -11.8857   -1.8633   27.9148 C   0  0  0  0  0  0  0  0  0  0  0  0
  -11.7835   -3.2024   28.3367 C   0  0  0  0  0  0  0  0  0  0  0  0
  -12.2354   -3.5498   29.6004 C   0  0  0  0  0  0  0  0  0  0  0  0
  -12.7934   -2.6449   30.3822 C   0  0  0  0  0  0  0  0  0  0  0  0
  -12.9268   -1.3516   29.9599 C   0  0  0  0  0  0  0  0  0  0  0  0
  -14.5317    0.2797   29.4981 C   0  0  2  0  0  0  0  0  0  0  0  0
  -13.7282    2.7146   30.3761 O   0  0  0  0  0  0  0  0  0  0  0  0
  -15.5456    0.9445   29.8779 C   0  0  0  0  0  0  0  0  0  0  0  0
  -14.2656   -1.0684   29.8927 C   0  0  0  0  0  0  0  0  0  0  0  0
  -16.8005    0.2627   29.5226 C   0  0  0  0  0  0  0  0  0  0  0  0
  -18.0490    0.8790   29.8022 C   0  0  0  0  0  0  0  0  0  0  0  0
  -18.0164    2.1624   30.4102 C   0  0  0  0  0  0  0  0  0  0  0  0
  -16.8696    2.8191   30.7370 C   0  0  0  0  0  0  0  0  0  0  0  0
  -15.7291    2.2278   30.4735 C   0  0  0  0  0  0  0  0  0  0  0  0
  1  2  1  0
  3  1  1  1
  3  4  1  0
  2  5  1  0
  4  6  1  0
  3  8  1  0
 10 11  1  0
 11 19  1  0
 19 20  1  0
 19 27  1  0
 11 28  2  0
 26 30  1  0
 27 30  1  0
 29 31  1  0
 31 32  2  3
 32 33  1  0
 33 34  2  3
 34 35  1  0
 27 29  1  1
 20 21  1  0
  6  7  2  0
  7 14  1  0
 14 15  2  0
 15 13  1  0
 13 12  2  0
 12  6  1  0
  8  9  2  0
  9 10  1  0
 10 16  2  0
 16 18  1  0
 18 17  2  0
 17  8  1  0
 21 22  2  0
 22 23  1  0
 23 24  2  0
 24 25  1  0
 25 26  2  0
 26 21  1  0
M  END
$$$$
