No_6644-complexes_sdf/6BKW-FPZ/2024-09-17-14-21-01/
     RDKit          3D

  7  7  0  0  0  0  0  0  0  0999 V2000
   -7.7129    4.2099   27.0854 C   0  0  0  0  0  0  0  0  0  0  0  0
   -7.7814    5.1722   27.8972 C   0  0  0  0  0  0  0  0  0  0  0  0
   -8.8998    3.8713   26.3707 C   0  0  0  0  0  0  0  0  0  0  0  0
   -9.9938    4.6774   26.5446 C   0  0  0  0  0  0  0  0  0  0  0  0
   -6.5693    5.6171   28.6342 C   0  0  0  0  0  0  0  0  0  0  0  0
   -9.9153    5.8237   27.1937 C   0  0  0  0  0  0  0  0  0  0  0  0
   -8.8327    6.1630   27.9549 C   0  0  0  0  0  0  0  0  0  0  0  0
  5  2  1  0
  1  2  2  0
  2  7  1  0
  7  6  2  0
  6  4  1  0
  4  3  2  0
  3  1  1  0
M  END
$$$$
