No_6892-complexes_sdf/6BKW-FPZ/2024-09-17-14-21-01/
     RDKit          3D

 29 32  0  0  0  0  0  0  0  0999 V2000
   -7.2496    3.8871   27.4508 C   0  0  0  0  0  0  0  0  0  0  0  0
   -8.5096    4.0291   27.2770 C   0  0  0  0  0  0  0  0  0  0  0  0
   -9.2669    5.1645   27.5845 C   0  0  0  0  0  0  0  0  0  0  0  0
   -8.4566    6.3212   27.8001 C   0  0  0  0  0  0  0  0  0  0  0  0
   -6.5590    2.5934   27.2169 C   0  0  0  0  0  0  0  0  0  0  0  0
   -7.3469    1.4814   27.0290 C   0  0  0  0  0  0  0  0  0  0  0  0
   -8.6628    1.6034   26.8522 C   0  0  0  0  0  0  0  0  0  0  0  0
   -9.3578    2.8220   27.1151 C   0  0  0  0  0  0  0  0  0  0  0  0
   -7.9205    6.8859   26.7662 C   0  0  0  0  0  0  0  0  0  0  0  0
   -6.6715    0.2268   26.8056 C   0  0  0  0  0  0  0  0  0  0  0  0
   -6.8435   -0.5182   25.9487 O   0  0  0  0  0  0  0  0  0  0  0  0
   -5.6969   -0.1138   27.8690 N   0  0  0  0  0  0  0  0  0  0  0  0
   -4.9957   -1.3393   27.8954 C   0  0  1  0  0  0  0  0  0  0  0  0
   -4.2210   -1.3152   28.7787 C   0  0  2  0  0  0  0  0  0  0  0  0
   -3.9181   -0.2699   29.7919 C   0  0  2  0  0  0  0  0  0  0  0  0
   -4.5240    0.9473   29.4911 C   0  0  0  0  0  0  0  0  0  0  0  0
   -5.3012    0.9986   28.5914 C   0  0  1  0  0  0  0  0  0  0  0  0
   -8.3779    8.0414   26.5594 C   0  0  0  0  0  0  0  0  0  0  0  0
   -2.9136   -0.3959   30.8806 C   0  0  0  0  0  0  0  0  0  0  0  0
   -2.2628   -1.5572   31.0661 C   0  0  0  0  0  0  0  0  0  0  0  0
   -1.7221   -2.0992   30.0946 C   0  0  0  0  0  0  0  0  0  0  0  0
   -1.9721   -1.8714   28.9361 C   0  0  0  0  0  0  0  0  0  0  0  0
   -2.6802   -1.5729   28.6418 C   0  0  0  0  0  0  0  0  0  0  0  0
   -5.6243    2.1418   28.1621 N   0  0  0  0  0  0  0  0  0  0  0  0
  -10.6572    5.2569   27.7302 C   0  0  0  0  0  0  0  0  0  0  0  0
   -5.4163   -2.4894   27.2983 C   0  0  0  0  0  0  0  0  0  0  0  0
   -6.4316   -2.5804   26.7811 F   0  0  0  0  0  0  0  0  0  0  0  0
   -5.2602   -3.4624   28.3021 F   0  0  0  0  0  0  0  0  0  0  0  0
   -4.4132   -2.6571   26.3653 F   0  0  0  0  0  0  0  0  0  0  0  0
  2  3  1  0
  3  4  2  3
  4  9  1  0
  6 10  1  0
 10 11  2  0
 10 12  1  0
 12 13  1  0
 14 15  1  0
 15 16  1  6
 12 17  1  0
 17 16  1  6
  9 18  1  0
 15 19  1  0
 19 20  2  0
 20 21  1  0
 21 22  2  0
 14 23  1  6
 22 23  1  0
  5 24  1  0
  3 25  1  0
 13 26  1  1
 26 27  1  0
 26 28  1  0
 26 29  1  0
 13 14  1  0
 24 17  1  0
  1  2  2  0
  2  8  1  0
  8  7  2  0
  7  6  1  0
  6  5  2  0
  5  1  1  0
M  END
$$$$
