No_6162-complexes_sdf/6BKW-FPZ/2024-09-17-14-21-01/
     RDKit          3D

 28 30  0  0  0  0  0  0  0  0999 V2000
   -7.9040    3.9820   27.1177 C   0  0  0  0  0  0  0  0  0  0  0  0
   -8.2057    2.8231   26.8733 C   0  0  0  0  0  0  0  0  0  0  0  0
   -8.7695    5.0740   26.7916 C   0  0  0  0  0  0  0  0  0  0  0  0
   -9.9618    4.7598   26.1630 C   0  0  0  0  0  0  0  0  0  0  0  0
   -9.4200    2.4524   26.2849 C   0  0  0  0  0  0  0  0  0  0  0  0
  -10.2590    3.4815   25.9250 C   0  0  0  0  0  0  0  0  0  0  0  0
   -8.3840    6.4693   27.0829 C   0  0  0  0  0  0  0  0  0  0  0  0
   -7.9048    6.7586   28.1698 O   0  0  0  0  0  0  0  0  0  0  0  0
   -8.6612    7.3784   26.2026 O   0  0  0  0  0  0  0  0  0  0  0  0
   -7.2781    1.6706   27.2862 C   0  0  0  0  0  0  0  0  0  0  0  0
   -7.6072    0.3844   27.1894 N   0  0  0  0  0  0  0  0  0  0  0  0
   -5.9291    1.8711   27.6398 N   0  0  0  0  0  0  0  0  0  0  0  0
   -6.4975   -0.2578   27.6720 C   0  0  0  0  0  0  0  0  0  0  0  0
   -5.5032    0.6383   27.9326 C   0  0  0  0  0  0  0  0  0  0  0  0
   -4.1239    0.4221   28.4609 C   0  0  0  0  0  0  0  0  0  0  0  0
   -3.0940    0.4712   27.7536 C   0  0  0  0  0  0  0  0  0  0  0  0
   -4.0042    0.1625   29.9123 C   0  0  0  0  0  0  0  0  0  0  0  0
   -3.6609   -0.9415   30.3961 C   0  0  0  0  0  0  0  0  0  0  0  0
   -1.9205   -0.3665   28.2739 C   0  0  0  0  0  0  0  0  0  0  0  0
   -2.1014   -0.9860   29.5965 C   0  0  0  0  0  0  0  0  0  0  0  0
   -6.4419   -1.7157   27.8511 C   0  0  0  0  0  0  0  0  0  0  0  0
   -6.2685   -2.3882   26.8648 C   0  0  0  0  0  0  0  0  0  0  0  0
   -6.6000   -2.2512   25.6798 C   0  0  0  0  0  0  0  0  0  0  0  0
   -7.7137   -1.8921   25.2493 C   0  0  0  0  0  0  0  0  0  0  0  0
   -8.0662   -1.7151   23.7883 C   0  0  0  0  0  0  0  0  0  0  0  0
   -9.2977   -1.2415   23.3672 C   0  0  0  0  0  0  0  0  0  0  0  0
  -10.2889   -1.0227   24.3455 C   0  0  0  0  0  0  0  0  0  0  0  0
  -10.0550   -1.2833   25.6736 C   0  0  0  0  0  0  0  0  0  0  0  0
  3  7  1  0
  7  8  1  0
  7  9  2  0
  2 10  1  0
 10 11  2  0
 10 12  1  0
 11 13  1  0
 12 14  1  0
 13 14  2  0
 14 15  1  0
 13 21  1  0
 21 22  1  0
 22 23  1  0
 23 24  2  3
 24 25  1  0
 25 26  2  3
 26 27  1  0
 27 28  2  0
  1  2  2  0
  2  5  1  0
  5  6  2  0
  6  4  1  0
  4  3  2  0
  3  1  1  0
 15 16  2  0
 16 19  1  0
 19 20  2  0
 20 18  1  0
 18 17  2  0
 17 15  1  0
M  END
$$$$
