No_6820-complexes_sdf/6BKW-FPZ/2024-09-17-14-21-01/
     RDKit          3D

 24 27  0  0  0  0  0  0  0  0999 V2000
   -7.9040    3.9820   27.1177 C   0  0  0  0  0  0  0  0  0  0  0  0
   -9.0711    4.3164   27.0630 C   0  0  0  0  0  0  0  0  0  0  0  0
   -9.9692    3.7224   26.1073 C   0  0  0  0  0  0  0  0  0  0  0  0
   -7.4776    2.6994   26.6283 C   0  0  0  0  0  0  0  0  0  0  0  0
   -8.4406    1.9440   25.9776 C   0  0  0  0  0  0  0  0  0  0  0  0
   -9.6379    2.5001   25.6881 C   0  0  0  0  0  0  0  0  0  0  0  0
   -6.7822    4.7986   28.1887 Cl  0  0  0  0  0  0  0  0  0  0  0  0
  -10.6003    1.7344   24.8207 C   0  0  0  0  0  0  0  0  0  0  0  0
  -10.5418    1.8025   23.5877 N   0  0  0  0  0  0  0  0  0  0  0  0
  -10.1216    2.8701   22.9454 C   0  0  0  0  0  0  0  0  0  0  0  0
  -10.6844    0.6315   22.7118 C   0  0  0  0  0  0  0  0  0  0  0  0
  -10.5484    4.1615   23.3176 C   0  0  0  0  0  0  0  0  0  0  0  0
   -9.7919    2.8435   21.5511 C   0  0  0  0  0  0  0  0  0  0  0  0
  -10.4728    5.3121   22.5193 C   0  0  0  0  0  0  0  0  0  0  0  0
  -10.2086    5.1157   21.1811 C   0  0  0  0  0  0  0  0  0  0  0  0
   -9.8347    3.9180   20.6830 C   0  0  0  0  0  0  0  0  0  0  0  0
  -11.4740   -0.4248   23.2069 C   0  0  0  0  0  0  0  0  0  0  0  0
  -11.6192   -1.4662   22.4916 C   0  0  0  0  0  0  0  0  0  0  0  0
  -11.0121   -1.5858   21.2019 C   0  0  0  0  0  0  0  0  0  0  0  0
  -10.1929   -0.5639   20.7114 C   0  0  0  0  0  0  0  0  0  0  0  0
  -10.0274    0.5538   21.5090 C   0  0  0  0  0  0  0  0  0  0  0  0
   -9.5793    1.7072   20.9422 N   0  0  0  0  0  0  0  0  0  0  0  0
  -11.4742    1.1325   25.5187 O   0  0  0  0  0  0  0  0  0  0  0  0
   -9.4966    5.7750   27.5116 C   0  0  0  0  0  0  0  0  0  0  0  0
  1  7  1  0
  6  8  1  0
  8  9  1  0
  9 10  1  0
  9 11  1  0
 13 22  1  0
 21 22  1  0
  8 23  2  0
  2 24  1  0
 11 17  2  0
 17 18  1  0
 18 19  2  0
 19 20  1  0
 20 21  2  0
 21 11  1  0
  1  2  2  0
  2  3  1  0
  3  6  2  0
  6  5  1  0
  5  4  2  0
  4  1  1  0
 10 12  2  0
 12 14  1  0
 14 15  2  0
 15 16  1  0
 16 13  2  0
 13 10  1  0
M  END
$$$$
