No_6937-complexes_sdf/6BKW-FPZ/2024-09-17-14-21-01/
     RDKit          3D

 35 38  0  0  0  0  0  0  0  0999 V2000
   -7.2496    3.8871   27.4508 C   0  0  0  0  0  0  0  0  0  0  0  0
   -7.9379    4.9063   27.8518 C   0  0  0  0  0  0  0  0  0  0  0  0
   -9.3376    4.8647   27.7795 C   0  0  0  0  0  0  0  0  0  0  0  0
   -7.8544    2.6294   27.0414 C   0  0  0  0  0  0  0  0  0  0  0  0
   -9.2852    2.6570   27.0666 C   0  0  0  0  0  0  0  0  0  0  0  0
  -10.0126    3.7528   27.4890 C   0  0  0  0  0  0  0  0  0  0  0  0
  -11.4946    3.6924   27.5201 C   0  0  0  0  0  0  0  0  0  0  0  0
  -12.0181    2.6419   28.0792 C   0  0  0  0  0  0  0  0  0  0  0  0
  -13.4558    2.4682   28.2693 C   0  0  0  0  0  0  0  0  0  0  0  0
  -14.2214    3.5827   27.8675 C   0  0  0  0  0  0  0  0  0  0  0  0
  -13.6463    4.6925   27.3441 C   0  0  0  0  0  0  0  0  0  0  0  0
  -12.2538    4.8357   27.2257 C   0  0  0  0  0  0  0  0  0  0  0  0
   -7.1387    1.4721   26.7399 C   0  0  0  0  0  0  0  0  0  0  0  0
   -7.6114    0.6968   25.8523 O   0  0  0  0  0  0  0  0  0  0  0  0
   -6.1563    1.0616   27.5573 O   0  0  0  0  0  0  0  0  0  0  0  0
   -7.2816    6.0221   28.2105 F   0  0  0  0  0  0  0  0  0  0  0  0
   -5.6355   -0.1795   27.6365 C   0  0  0  0  0  0  0  0  0  0  0  0
   -4.7686   -0.1602   28.6604 C   0  0  0  0  0  0  0  0  0  0  0  0
   -3.9852   -0.8597   29.0252 C   0  0  0  0  0  0  0  0  0  0  0  0
   -3.7266   -2.0084   28.1292 C   0  0  0  0  0  0  0  0  0  0  0  0
   -4.5590   -2.0756   27.0014 C   0  0  0  0  0  0  0  0  0  0  0  0
   -5.3874   -1.0271   26.6951 C   0  0  0  0  0  0  0  0  0  0  0  0
   -3.0822   -1.0751   30.2242 C   0  0  0  0  0  0  0  0  0  0  0  0
   -3.5903   -0.1929   31.3975 C   0  0  0  0  0  0  0  0  0  0  0  0
   -2.0021   -1.7974   30.4341 C   0  0  0  0  0  0  0  0  0  0  0  0
   -2.6663    0.0726   32.2484 F   0  0  0  0  0  0  0  0  0  0  0  0
   -4.0324    1.0457   31.0497 F   0  0  0  0  0  0  0  0  0  0  0  0
   -4.5473   -0.8719   32.0177 F   0  0  0  0  0  0  0  0  0  0  0  0
   -1.1158   -1.7971   29.4657 O   0  0  0  0  0  0  0  0  0  0  0  0
  -14.0082    1.3170   28.7914 N   0  0  0  0  0  0  0  0  0  0  0  0
  -14.1911    1.2659   30.0470 C   0  0  0  0  0  0  0  0  0  0  0  0
  -14.5652   -0.0448   30.6026 C   0  0  0  0  0  0  0  0  0  0  0  0
  -14.2043    0.3527   27.9803 C   0  0  0  0  0  0  0  0  0  0  0  0
  -14.6029   -0.9422   28.4383 C   0  0  0  0  0  0  0  0  0  0  0  0
  -14.8259   -1.0731   29.8059 C   0  0  0  0  0  0  0  0  0  0  0  0
  6  7  1  0
  4 13  1  0
 13 14  2  0
 13 15  1  0
  2 16  1  0
 15 17  1  0
 19 23  1  0
 23 24  1  0
 23 25  1  0
 24 26  1  0
 24 27  1  0
 24 28  1  0
 25 29  1  0
  9 30  1  0
 30 31  1  0
 30 33  1  0
 32 35  1  0
 34 35  1  0
 31 32  1  0
 34 33  1  0
 17 18  2  0
 18 19  1  0
 19 20  2  0
 20 21  1  0
 21 22  2  0
 22 17  1  0
  1  2  2  0
  2  3  1  0
  3  6  2  0
  6  5  1  0
  5  4  2  0
  4  1  1  0
  7  8  2  0
  8  9  1  0
  9 10  2  0
 10 11  1  0
 11 12  2  0
 12  7  1  0
M  END
$$$$
