No_68-complexes_sdf/6BKW-FPZ/2024-09-17-14-21-01/
     RDKit          3D

 19 21  0  0  0  0  0  0  0  0999 V2000
   -7.9040    3.9820   27.1177 C   0  0  0  0  0  0  0  0  0  0  0  0
   -7.8663    4.8694   27.9238 C   0  0  0  0  0  0  0  0  0  0  0  0
   -7.4547    2.7080   27.4594 C   0  0  0  0  0  0  0  0  0  0  0  0
   -8.0927    6.2909   27.5184 C   0  0  0  0  0  0  0  0  0  0  0  0
   -8.9150    6.5640   26.4331 C   0  0  0  0  0  0  0  0  0  0  0  0
   -7.6563    1.4669   26.7411 C   0  0  0  0  0  0  0  0  0  0  0  0
   -8.5911    4.1595   25.8847 C   0  0  0  0  0  0  0  0  0  0  0  0
   -9.0399    3.0700   25.1263 C   0  0  0  0  0  0  0  0  0  0  0  0
   -9.1739    5.4642   25.6039 C   0  0  0  0  0  0  0  0  0  0  0  0
   -8.4807    1.7673   25.5531 C   0  0  0  0  0  0  0  0  0  0  0  0
   -7.1903    0.2570   27.0411 C   0  0  0  0  0  0  0  0  0  0  0  0
   -6.0380    0.0713   27.8323 C   0  0  0  0  0  0  0  0  0  0  0  0
   -5.6402   -1.1538   28.3601 C   0  0  0  0  0  0  0  0  0  0  0  0
   -4.5545   -1.2320   29.2570 C   0  0  0  0  0  0  0  0  0  0  0  0
   -3.7525   -0.0780   29.4981 C   0  0  0  0  0  0  0  0  0  0  0  0
   -4.0921    1.1307   28.8559 C   0  0  0  0  0  0  0  0  0  0  0  0
   -5.2054    1.2122   28.0914 C   0  0  0  0  0  0  0  0  0  0  0  0
   -7.8483   -0.7964   26.6697 O   0  0  0  0  0  0  0  0  0  0  0  0
   -2.3785   -0.1461   30.5485 Cl  0  0  0  0  0  0  0  0  0  0  0  0
  6 11  1  0
 11 12  1  0
 11 18  2  0
 15 19  1  0
  1  2  2  0
  2  4  1  0
  4  5  2  0
  5  9  1  0
  9  7  2  0
 12 13  2  0
 13 14  1  0
 14 15  2  0
 15 16  1  0
 16 17  2  0
 17 12  1  0
  1  3  1  0
  3  6  2  0
  6 10  1  0
 10  8  2  0
  8  7  1  0
  7  1  1  0
M  END
$$$$
