No_6751-complexes_sdf/6BKW-FPZ/2024-09-17-14-21-01/
     RDKit          3D

 20 21  0  0  0  0  0  0  0  0999 V2000
   -7.9040    3.9820   27.1177 C   0  0  0  0  0  0  0  0  0  0  0  0
   -7.8663    4.8694   27.9238 C   0  0  0  0  0  0  0  0  0  0  0  0
   -9.0491    3.8523   26.2542 C   0  0  0  0  0  0  0  0  0  0  0  0
   -8.7661    5.9491   27.9690 C   0  0  0  0  0  0  0  0  0  0  0  0
   -9.9295    4.8502   26.2323 C   0  0  0  0  0  0  0  0  0  0  0  0
   -9.8077    5.9288   27.0933 C   0  0  0  0  0  0  0  0  0  0  0  0
   -6.8002    2.6256   27.2024 Cl  0  0  0  0  0  0  0  0  0  0  0  0
   -9.1358    2.5242   25.1295 Cl  0  0  0  0  0  0  0  0  0  0  0  0
  -11.1978    4.8242   25.0373 P   0  0  1  0  0  0  0  0  0  0  0  0
  -10.6989    5.1730   23.7344 O   0  0  0  0  0  0  0  0  0  0  0  0
  -11.5616    3.3116   24.9439 O   0  0  0  0  0  0  0  0  0  0  0  0
  -12.3603    5.4528   25.6098 O   0  0  0  0  0  0  0  0  0  0  0  0
  -12.1598    2.6921   25.8819 C   0  0  0  0  0  0  0  0  0  0  0  0
  -13.3903    2.0344   25.6959 C   0  0  0  0  0  0  0  0  0  0  0  0
  -13.7638    1.7723   24.4882 C   0  0  0  0  0  0  0  0  0  0  0  0
  -15.0414    1.1535   24.1945 C   0  0  0  0  0  0  0  0  0  0  0  0
  -15.4068    0.8939   22.9066 C   0  0  0  0  0  0  0  0  0  0  0  0
  -14.5406    1.2501   21.8336 C   0  0  0  0  0  0  0  0  0  0  0  0
  -13.3230    1.8585   22.0716 C   0  0  0  0  0  0  0  0  0  0  0  0
  -12.9292    2.1252   23.3990 C   0  0  0  0  0  0  0  0  0  0  0  0
  1  7  1  0
  3  8  1  0
  5  9  1  0
  9 10  2  0
  9 11  1  0
  9 12  1  1
 11 13  1  0
 13 14  2  3
 14 15  1  0
 15 16  2  0
 16 17  1  0
 17 18  2  0
 18 19  1  0
 19 20  2  0
 20 15  1  0
  1  2  2  0
  2  4  1  0
  4  6  2  0
  6  5  1  0
  5  3  2  0
  3  1  1  0
M  END
$$$$
