No_6292-complexes_sdf/6BKW-FPZ/2024-09-17-14-21-01/
     RDKit          3D

 11 11  0  0  0  0  0  0  0  0999 V2000
   -7.7129    4.2099   27.0854 C   0  0  0  0  0  0  0  0  0  0  0  0
   -7.7814    5.1722   27.8972 C   0  0  0  0  0  0  0  0  0  0  0  0
   -8.7889    3.2468   27.2220 C   0  0  0  0  0  0  0  0  0  0  0  0
   -8.7402    2.0341   26.3990 C   0  0  0  0  0  0  0  0  0  0  0  0
   -8.9680    5.6562   28.5183 C   0  0  0  0  0  0  0  0  0  0  0  0
   -9.9491    3.5176   27.8853 C   0  0  0  0  0  0  0  0  0  0  0  0
  -10.0212    4.7882   28.5980 C   0  0  0  0  0  0  0  0  0  0  0  0
   -9.4242    1.7076   25.5037 N   0  0  0  0  0  0  0  0  0  0  0  0
  -10.3253    2.6441   25.0737 C   0  0  0  0  0  0  0  0  0  0  0  0
  -10.9287    2.4187   23.7559 C   0  0  0  0  0  0  0  0  0  0  0  0
  -10.9122    1.2841   23.3575 C   0  0  0  0  0  0  0  0  0  0  0  0
  3  4  1  0
  4  8  2  3
  8  9  1  0
  9 10  2  3
 10 11  1  0
  1  2  2  0
  2  5  1  0
  5  7  2  0
  7  6  1  0
  6  3  2  0
  3  1  1  0
M  END
$$$$
