No_633-complexes_sdf/6BKW-FPZ/2024-09-17-14-21-01/
     RDKit          3D

 17 18  0  0  0  0  0  0  0  0999 V2000
   -7.9040    3.9820   27.1177 C   0  0  0  0  0  0  0  0  0  0  0  0
   -7.8663    4.8694   27.9238 C   0  0  0  0  0  0  0  0  0  0  0  0
   -7.4547    2.7080   27.4594 C   0  0  0  0  0  0  0  0  0  0  0  0
   -8.7044    6.0412   27.8492 C   0  0  0  0  0  0  0  0  0  0  0  0
   -6.9701    1.8932   27.0570 C   0  0  0  0  0  0  0  0  0  0  0  0
   -6.6222    0.6255   27.6987 C   0  0  0  0  0  0  0  0  0  0  0  0
   -8.6643    4.1575   25.9537 C   0  0  0  0  0  0  0  0  0  0  0  0
   -9.8029    4.5658   26.0591 C   0  0  0  0  0  0  0  0  0  0  0  0
   -9.7556    5.9676   26.8403 C   0  0  0  0  0  0  0  0  0  0  0  0
   -5.6060    0.2131   28.0616 C   0  0  0  0  0  0  0  0  0  0  0  0
   -4.3722    0.9281   27.7107 C   0  0  0  0  0  0  0  0  0  0  0  0
   -5.3944   -0.9367   29.0002 C   0  0  0  0  0  0  0  0  0  0  0  0
   -6.3476   -1.8360   29.0930 C   0  0  0  0  0  0  0  0  0  0  0  0
   -7.8528   -0.1583   27.9143 C   0  0  0  0  0  0  0  0  0  0  0  0
   -7.6718   -1.3586   28.6359 C   0  0  0  0  0  0  0  0  0  0  0  0
   -3.3623    0.1940   27.9643 F   0  0  0  0  0  0  0  0  0  0  0  0
   -4.4015    1.3334   26.4739 F   0  0  0  0  0  0  0  0  0  0  0  0
  1  3  1  0
  3  5  1  0
  5  6  1  0
 11 16  1  0
 11 17  1  0
 11 10  1  0
  1  2  2  0
  2  4  1  0
  4  9  2  0
  9  8  1  0
  8  7  2  0
  7  1  1  0
  6 10  2  0
 10 12  1  0
 12 13  2  0
 13 15  1  0
 15 14  2  0
 14  6  1  0
M  END
$$$$
