No_6475-complexes_sdf/6BKW-FPZ/2024-09-17-14-21-01/
     RDKit          3D

 30 32  0  0  0  0  0  0  0  0999 V2000
   -7.9040    3.9820   27.1177 C   0  0  0  0  0  0  0  0  0  0  0  0
   -9.0711    4.3164   27.0630 C   0  0  0  0  0  0  0  0  0  0  0  0
   -9.5294    5.4517   27.7215 C   0  0  0  0  0  0  0  0  0  0  0  0
   -7.4336    2.7132   26.5681 C   0  0  0  0  0  0  0  0  0  0  0  0
   -8.3353    1.8569   26.0442 C   0  0  0  0  0  0  0  0  0  0  0  0
   -9.6477    2.2853   25.9146 C   0  0  2  0  0  0  0  0  0  0  0  0
  -10.0346    3.4497   26.4483 C   0  0  2  0  0  0  0  0  0  0  0  0
   -7.8750    0.5509   25.5918 C   0  0  0  0  0  0  0  0  0  0  0  0
   -8.4860   -0.3441   26.0976 F   0  0  0  0  0  0  0  0  0  0  0  0
   -8.0377    0.4678   24.2351 F   0  0  0  0  0  0  0  0  0  0  0  0
   -6.5550    0.4136   25.7722 F   0  0  0  0  0  0  0  0  0  0  0  0
   -6.8979    4.6895   27.8886 N   0  0  0  0  0  0  0  0  0  0  0  0
   -7.2396    5.8773   28.4663 C   0  0  0  0  0  0  0  0  0  0  0  0
   -8.5619    6.2546   28.3334 N   0  0  0  0  0  0  0  0  0  0  0  0
  -11.4300    3.8571   26.1711 C   0  0  0  0  0  0  0  0  0  0  0  0
  -11.6914    4.3825   25.1618 F   0  0  0  0  0  0  0  0  0  0  0  0
  -12.2117    2.7027   26.3202 F   0  0  0  0  0  0  0  0  0  0  0  0
  -11.8976    4.7029   27.1632 F   0  0  0  0  0  0  0  0  0  0  0  0
  -10.2716    2.8091   27.3053 F   0  0  0  0  0  0  0  0  0  0  0  0
  -10.3592    1.6388   25.2157 O   0  0  0  0  0  0  0  0  0  0  0  0
   -8.9390    2.6946   24.8994 C   0  0  1  0  0  0  0  0  0  0  0  0
   -9.5983    2.4325   23.7169 C   0  0  1  0  0  0  0  0  0  0  0  0
   -8.3721    3.9483   24.6729 C   0  0  0  0  0  0  0  0  0  0  0  0
   -9.7925    3.3857   22.7883 C   0  0  0  0  0  0  0  0  0  0  0  0
  -10.6285    0.4650   24.8118 C   0  0  1  0  0  0  0  0  0  0  0  0
   -9.2852    1.1927   22.8275 C   0  0  2  0  0  0  0  0  0  0  0  0
   -8.3722    1.5010   21.8021 C   0  0  0  0  0  0  0  0  0  0  0  0
  -10.0361    0.0821   22.8576 C   0  0  0  0  0  0  0  0  0  0  0  0
  -12.0240    0.0502   24.7564 C   0  0  0  0  0  0  0  0  0  0  0  0
   -9.9580   -0.5527   24.1086 O   0  0  0  0  0  0  0  0  0  0  0  0
  1  4  1  0
  4  5  1  0
  5  6  1  0
  2  7  1  0
  6  7  1  0
  5  8  1  0
  8  9  1  0
  8 10  1  0
  8 11  1  0
  7 15  1  0
 15 16  1  0
 15 17  1  0
 15 18  1  0
  7 19  1  1
  6 20  1  1
  6 21  1  0
 21 22  1  0
 21 23  1  1
 22 24  1  6
 20 25  1  0
 22 26  1  0
 26 27  1  6
 26 28  1  0
 25 29  1  6
 25 30  1  0
 28 30  1  0
  1  2  1  0
  2  3  2  0
  3 14  1  0
 14 13  2  0
 13 12  1  0
 12  1  2  0
M  END
$$$$
