No_6562-complexes_sdf/6BKW-FPZ/2024-09-17-14-21-01/
     RDKit          3D

 21 22  0  0  0  0  0  0  0  0999 V2000
   -7.7129    4.2099   27.0854 C   0  0  0  0  0  0  0  0  0  0  0  0
   -8.9133    4.4736   27.0998 C   0  0  0  0  0  0  0  0  0  0  0  0
   -9.4643    5.5426   27.7628 C   0  0  0  0  0  0  0  0  0  0  0  0
   -6.8373    4.9942   27.9785 C   0  0  0  0  0  0  0  0  0  0  0  0
   -7.3717    6.0428   28.6744 C   0  0  0  0  0  0  0  0  0  0  0  0
   -8.6869    6.3937   28.5345 C   0  0  0  0  0  0  0  0  0  0  0  0
   -9.8077    3.6185   26.2213 C   0  0  0  0  0  0  0  0  0  0  0  0
   -9.9184    4.0253   24.8835 C   0  0  0  0  0  0  0  0  0  0  0  0
  -10.7152    3.3632   24.0021 C   0  0  0  0  0  0  0  0  0  0  0  0
  -11.3632    2.2167   24.3361 C   0  0  0  0  0  0  0  0  0  0  0  0
  -10.3381    2.4604   26.6575 C   0  0  0  0  0  0  0  0  0  0  0  0
  -11.1975    1.7151   25.7097 C   0  0  0  0  0  0  0  0  0  0  0  0
  -10.1868    1.9376   27.9896 C   0  0  0  0  0  0  0  0  0  0  0  0
  -10.8384    3.9339   22.6200 C   0  0  0  0  0  0  0  0  0  0  0  0
  -10.2731    3.3248   21.5478 C   0  0  0  0  0  0  0  0  0  0  0  0
  -11.5127    5.1899   22.4621 C   0  0  0  0  0  0  0  0  0  0  0  0
  -10.3550    0.5688   28.2072 C   0  0  0  0  0  0  0  0  0  0  0  0
   -9.2863   -0.2822   28.0906 C   0  0  0  0  0  0  0  0  0  0  0  0
   -9.4218   -1.6859   28.3212 C   0  0  0  0  0  0  0  0  0  0  0  0
  -10.7318   -2.0894   28.6966 C   0  0  0  0  0  0  0  0  0  0  0  0
  -11.7891   -1.2602   28.8237 C   0  0  0  0  0  0  0  0  0  0  0  0
  2  7  1  0
 11 13  1  0
  9 14  1  0
 14 15  1  0
 14 16  1  0
 13 17  2  3
 17 18  1  0
 18 19  2  3
 19 20  1  0
 20 21  2  0
  7  8  2  0
  8  9  1  0
  9 10  2  0
 10 12  1  0
 12 11  2  0
 11  7  1  0
  1  2  2  0
  2  3  1  0
  3  6  2  0
  6  5  1  0
  5  4  2  0
  4  1  1  0
M  END
$$$$
