No_6885-complexes_sdf/6BKW-FPZ/2024-09-17-14-21-01/
     RDKit          3D

 11 11  0  0  0  0  0  0  0  0999 V2000
   -7.7129    4.2099   27.0854 C   0  0  0  0  0  0  0  0  0  0  0  0
   -7.7814    5.1722   27.8972 C   0  0  0  0  0  0  0  0  0  0  0  0
   -7.3155    2.9699   27.6145 C   0  0  0  0  0  0  0  0  0  0  0  0
   -6.9774    2.0071   26.9623 C   0  0  0  0  0  0  0  0  0  0  0  0
   -6.2970    0.8917   27.5555 C   0  0  0  0  0  0  0  0  0  0  0  0
   -5.3521    0.3384   27.4672 C   0  0  0  0  0  0  0  0  0  0  0  0
   -4.8721   -0.7277   28.3627 C   0  0  0  0  0  0  0  0  0  0  0  0
   -5.8648   -1.2292   29.1907 C   0  0  0  0  0  0  0  0  0  0  0  0
   -7.0670   -0.0213   28.6057 C   0  0  0  0  0  0  0  0  0  0  0  0
   -8.5267    6.3261   27.9749 C   0  0  0  0  0  0  0  0  0  0  0  0
   -9.1148    6.7273   26.6446 C   0  0  0  0  0  0  0  0  0  0  0  0
  1  2  1  0
  1  3  2  3
  3  4  1  0
  4  5  1  0
  5  6  1  0
  6  7  2  0
  7  8  1  0
  5  9  1  0
  8  9  2  0
  2 10  2  3
 10 11  1  0
M  END
$$$$
