No_6966-complexes_sdf/6BKW-FPZ/2024-09-17-14-21-01/
     RDKit          3D

 37 43  0  0  0  0  0  0  0  0999 V2000
   -7.9040    3.9820   27.1177 C   0  0  0  0  0  0  0  0  0  0  0  0
   -7.8663    4.8694   27.9238 C   0  0  0  0  0  0  0  0  0  0  0  0
   -9.0501    3.8017   26.2617 C   0  0  0  0  0  0  0  0  0  0  0  0
   -9.1826    2.7026   25.3575 C   0  0  0  0  0  0  0  0  0  0  0  0
   -8.6940    6.0131   27.8614 C   0  0  0  0  0  0  0  0  0  0  0  0
   -9.9755    4.8547   26.2361 C   0  0  0  0  0  0  0  0  0  0  0  0
   -9.7463    5.9398   27.0364 C   0  0  0  0  0  0  0  0  0  0  0  0
   -8.7079    1.4615   25.7719 C   0  0  0  0  0  0  0  0  0  0  0  0
   -9.8679    2.8075   24.1351 C   0  0  0  0  0  0  0  0  0  0  0  0
   -8.1461    1.2670   26.9807 C   0  0  0  0  0  0  0  0  0  0  0  0
   -7.4144    2.5688   27.5482 C   0  0  1  0  0  0  0  0  0  0  0  0
  -10.4683    4.0008   23.7561 C   0  0  0  0  0  0  0  0  0  0  0  0
  -10.6500    4.9367   24.9404 C   0  0  0  0  0  0  0  0  0  0  0  0
   -8.9099    0.2877   24.9446 C   0  0  0  0  0  0  0  0  0  0  0  0
   -8.6004   -0.8493   25.4352 C   0  0  0  0  0  0  0  0  0  0  0  0
   -8.1191   -0.9889   26.6218 C   0  0  0  0  0  0  0  0  0  0  0  0
   -7.7119    0.1272   27.4474 C   0  0  0  0  0  0  0  0  0  0  0  0
  -11.1882    4.2510   22.6015 C   0  0  0  0  0  0  0  0  0  0  0  0
  -11.9292    4.8939   22.3440 C   0  0  0  0  0  0  0  0  0  0  0  0
  -10.5247    3.4796   21.4980 C   0  0  0  0  0  0  0  0  0  0  0  0
  -10.8130    3.6245   20.2295 C   0  0  0  0  0  0  0  0  0  0  0  0
  -12.5491    5.1140   21.0157 C   0  0  0  0  0  0  0  0  0  0  0  0
  -11.9296    4.4342   19.9914 C   0  0  0  0  0  0  0  0  0  0  0  0
   -7.7383   -2.3855   27.1852 C   0  0  0  0  0  0  0  0  0  0  0  0
   -6.6089   -2.7875   27.1061 C   0  0  0  0  0  0  0  0  0  0  0  0
   -5.5337   -1.9687   27.0849 C   0  0  0  0  0  0  0  0  0  0  0  0
   -5.4702   -0.7283   27.5917 C   0  0  0  0  0  0  0  0  0  0  0  0
   -6.3900    0.3765   27.4360 C   0  0  2  0  0  0  0  0  0  0  0  0
   -5.7885    1.6985   27.7783 C   0  0  0  0  0  0  0  0  0  0  0  0
   -8.8918   -2.0169   24.5661 C   0  0  1  0  0  0  0  0  0  0  0  0
  -10.0442   -2.5300   24.5948 C   0  0  1  0  0  0  0  0  0  0  0  0
   -7.8718   -2.4747   23.6701 C   0  0  0  0  0  0  0  0  0  0  0  0
  -11.1207   -2.1572   25.1262 C   0  0  0  0  0  0  0  0  0  0  0  0
  -12.3609   -2.8101   25.1462 C   0  0  0  0  0  0  0  0  0  0  0  0
  -10.2944   -3.7471   23.7521 C   0  0  0  0  0  0  0  0  0  0  0  0
   -9.0344   -4.4236   22.8075 Cl  0  0  0  0  0  0  0  0  0  0  0  0
   -6.5287   -1.6787   23.5066 C   0  0  0  0  0  0  0  0  0  0  0  0
  4  8  1  0
  1 11  1  0
 10 11  1  0
 12 18  1  0
 16 24  1  0
 24 25  1  0
 25 26  2  0
 26 27  1  0
 17 28  1  0
 28 27  1  1
 11 29  1  6
 28 29  1  0
 15 30  1  0
 30 31  1  0
 30 32  1  6
 31 33  1  0
 33 34  2  0
 31 35  1  6
 35 36  1  0
 32 37  1  0
  8 10  2  0
 10 17  1  0
 17 16  2  0
 16 15  1  0
 15 14  2  0
 14  8  1  0
 18 19  2  0
 19 22  1  0
 22 23  2  0
 23 21  1  0
 21 20  2  0
 20 18  1  0
  3  4  2  0
  4  9  1  0
  9 12  2  0
 12 13  1  0
 13  6  2  0
  1  2  2  0
  2  5  1  0
  5  7  2  0
  7  6  1  0
  6  3  1  0
  3  1  1  0
M  END
$$$$
