No_682-complexes_sdf/6BKW-FPZ/2024-09-17-14-21-01/
     RDKit          3D

 19 20  0  0  0  0  0  0  0  0999 V2000
   -7.9040    3.9820   27.1177 C   0  0  0  0  0  0  0  0  0  0  0  0
   -8.2057    2.8231   26.8733 C   0  0  0  0  0  0  0  0  0  0  0  0
   -9.2962    2.4021   26.1155 C   0  0  0  0  0  0  0  0  0  0  0  0
   -8.7358    5.0662   26.5917 C   0  0  0  0  0  0  0  0  0  0  0  0
   -9.7618    4.7023   25.7546 C   0  0  0  0  0  0  0  0  0  0  0  0
  -10.0066    3.4105   25.4922 C   0  0  0  0  0  0  0  0  0  0  0  0
   -8.3943    6.4761   26.8801 C   0  0  0  0  0  0  0  0  0  0  0  0
   -8.0574    7.5061   27.0291 N   0  0  0  0  0  0  0  0  0  0  0  0
   -7.3437    1.6766   27.4898 C   0  0  0  0  0  0  0  0  0  0  0  0
   -6.1862    2.0194   27.9318 O   0  0  0  0  0  0  0  0  0  0  0  0
   -7.6914    0.4184   27.4267 N   0  0  0  0  0  0  0  0  0  0  0  0
   -6.8943   -0.6717   27.9400 C   0  0  0  0  0  0  0  0  0  0  0  0
   -7.6151   -1.7470   28.4036 C   0  0  0  0  0  0  0  0  0  0  0  0
   -9.0047   -1.7196   28.2607 C   0  0  0  0  0  0  0  0  0  0  0  0
   -9.7767   -2.7874   28.7272 C   0  0  0  0  0  0  0  0  0  0  0  0
   -9.1383   -3.7787   29.4530 C   0  0  0  0  0  0  0  0  0  0  0  0
   -7.8290   -3.7854   29.6900 C   0  0  0  0  0  0  0  0  0  0  0  0
   -7.0378   -2.7517   29.2206 C   0  0  0  0  0  0  0  0  0  0  0  0
   -5.6739   -0.6250   27.8614 O   0  0  0  0  0  0  0  0  0  0  0  0
  4  7  1  0
  7  8  3  0
  2  9  1  0
  9 10  2  0
  9 11  1  0
 11 12  1  0
 12 13  1  0
 12 19  2  0
 13 14  2  0
 14 15  1  0
 15 16  2  0
 16 17  1  0
 17 18  2  0
 18 13  1  0
  1  2  2  0
  2  3  1  0
  3  6  2  0
  6  5  1  0
  5  4  2  0
  4  1  1  0
M  END
$$$$
