No_6930-complexes_sdf/6BKW-FPZ/2024-09-17-14-21-01/
     RDKit          3D

 19 20  0  0  0  0  0  0  0  0999 V2000
   -7.2496    3.8871   27.4508 C   0  0  0  0  0  0  0  0  0  0  0  0
   -7.9379    4.9063   27.8518 C   0  0  0  0  0  0  0  0  0  0  0  0
   -7.5112    6.1898   27.6280 C   0  0  0  0  0  0  0  0  0  0  0  0
   -9.3085    4.6933   28.2930 C   0  0  0  0  0  0  0  0  0  0  0  0
   -7.7804    2.5137   27.6845 C   0  0  0  0  0  0  0  0  0  0  0  0
   -9.1546    2.3397   27.7350 C   0  0  0  0  0  0  0  0  0  0  0  0
   -9.8867    3.4718   28.2310 C   0  0  0  0  0  0  0  0  0  0  0  0
   -7.1239    1.2959   27.2094 C   0  0  0  0  0  0  0  0  0  0  0  0
   -7.3283    0.3911   26.6146 O   0  0  0  0  0  0  0  0  0  0  0  0
   -5.7708    1.3815   27.7179 O   0  0  0  0  0  0  0  0  0  0  0  0
   -4.9712    0.2758   27.7727 C   0  0  0  0  0  0  0  0  0  0  0  0
   -4.7912   -0.2341   28.8579 C   0  0  0  0  0  0  0  0  0  0  0  0
   -4.1506   -1.4224   29.0605 C   0  0  0  0  0  0  0  0  0  0  0  0
   -3.4653   -1.9278   27.9188 C   0  0  0  0  0  0  0  0  0  0  0  0
   -3.6397   -1.2904   26.7018 C   0  0  0  0  0  0  0  0  0  0  0  0
   -4.4008   -0.1351   26.5973 C   0  0  0  0  0  0  0  0  0  0  0  0
  -11.2920    3.0781   28.5664 C   0  0  0  0  0  0  0  0  0  0  0  0
  -12.1535    4.0215   28.9641 N   0  0  0  0  0  0  0  0  0  0  0  0
  -13.4338    3.7776   29.3566 C   0  0  0  0  0  0  0  0  0  0  0  0
  2  3  1  0
  5  8  1  0
  8  9  2  0
  8 10  1  0
 10 11  1  0
  7 17  1  0
 17 18  2  3
 18 19  1  0
 11 12  2  0
 12 13  1  0
 13 14  2  0
 14 15  1  0
 15 16  2  0
 16 11  1  0
  1  2  2  0
  2  4  1  0
  4  7  2  0
  7  6  1  0
  6  5  2  0
  5  1  1  0
M  END
$$$$
