No_6574-complexes_sdf/6BKW-FPZ/2024-09-17-14-21-01/
     RDKit          3D

 15 16  0  0  0  0  0  0  0  0999 V2000
   -7.9040    3.9820   27.1177 C   0  0  0  0  0  0  0  0  0  0  0  0
   -7.8663    4.8694   27.9238 C   0  0  0  0  0  0  0  0  0  0  0  0
   -9.0806    3.1428   27.1220 C   0  0  0  0  0  0  0  0  0  0  0  0
   -9.1366    1.9856   26.2314 C   0  0  0  0  0  0  0  0  0  0  0  0
   -8.8079    5.7107   28.1389 C   0  0  0  0  0  0  0  0  0  0  0  0
  -10.1796    5.1453   27.9407 C   0  0  0  0  0  0  0  0  0  0  0  0
  -10.2114    3.9346   27.3083 C   0  0  0  0  0  0  0  0  0  0  0  0
   -8.7288    1.8748   25.2781 C   0  0  0  0  0  0  0  0  0  0  0  0
   -8.6947    0.6811   24.4258 C   0  0  0  0  0  0  0  0  0  0  0  0
   -9.2209   -0.4335   24.9260 C   0  0  0  0  0  0  0  0  0  0  0  0
   -9.7072    0.7959   26.9254 C   0  0  0  0  0  0  0  0  0  0  0  0
   -9.7349   -0.4004   26.2922 C   0  0  0  0  0  0  0  0  0  0  0  0
  -11.5454    3.3338   27.0862 C   0  0  0  0  0  0  0  0  0  0  0  0
  -12.2111    3.4912   25.9424 C   0  0  0  0  0  0  0  0  0  0  0  0
  -13.4681    2.9929   25.6587 C   0  0  0  0  0  0  0  0  0  0  0  0
  3  4  1  0
  7 13  1  0
 13 14  2  3
 14 15  1  0
  4  8  2  0
  8  9  1  0
  9 10  2  0
 10 12  1  0
 12 11  2  0
 11  4  1  0
  1  2  2  0
  2  5  1  0
  5  6  2  0
  6  7  1  0
  7  3  2  0
  3  1  1  0
M  END
$$$$
