No_6070-complexes_sdf/6BKW-FPZ/2024-09-17-14-21-01/
     RDKit          3D

 13 13  0  0  0  0  0  0  0  0999 V2000
   -7.2496    3.8871   27.4508 C   0  0  0  0  0  0  0  0  0  0  0  0
   -7.6161    2.7143   27.1523 C   0  0  0  0  0  0  0  0  0  0  0  0
   -8.6212    2.2239   26.4073 C   0  0  0  0  0  0  0  0  0  0  0  0
   -8.2540    4.9237   27.1711 C   0  0  0  0  0  0  0  0  0  0  0  0
   -9.3729    4.5806   26.4432 C   0  0  0  0  0  0  0  0  0  0  0  0
   -9.5830    3.2969   26.1026 C   0  0  0  0  0  0  0  0  0  0  0  0
   -7.9479    6.2272   27.5121 N   0  0  0  0  0  0  0  0  0  0  0  0
   -8.8625    0.8952   26.0570 C   0  0  0  0  0  0  0  0  0  0  0  0
   -9.1669    0.0064   26.9811 C   0  0  0  0  0  0  0  0  0  0  0  0
   -9.4335   -0.9581   27.1801 C   0  0  0  0  0  0  0  0  0  0  0  0
   -9.7976   -1.6963   28.4805 C   0  0  0  0  0  0  0  0  0  0  0  0
   -9.1783   -1.9900   26.1036 C   0  0  0  0  0  0  0  0  0  0  0  0
   -6.9986    6.6351   28.0175 C   0  0  0  0  0  0  0  0  0  0  0  0
  4  7  1  0
  3  8  1  0
  8  9  2  3
  9 10  1  0
 10 11  2  0
 10 12  1  0
  7 13  2  0
  1  2  2  0
  2  3  1  0
  3  6  2  0
  6  5  1  0
  5  4  2  0
  4  1  1  0
M  END
$$$$
