No_6465-complexes_sdf/6BKW-FPZ/2024-09-17-14-21-01/
     RDKit          3D

 26 28  0  0  0  0  0  0  0  0999 V2000
   -7.9040    3.9820   27.1177 C   0  0  0  0  0  0  0  0  0  0  0  0
   -9.0711    4.3164   27.0630 C   0  0  1  0  0  0  0  0  0  0  0  0
   -9.8698    3.9665   25.9495 C   0  0  0  0  0  0  0  0  0  0  0  0
   -7.0332    4.5030   28.2025 C   0  0  0  0  0  0  0  0  0  0  0  0
   -9.4357    2.9501   25.1393 C   0  0  0  0  0  0  0  0  0  0  0  0
  -10.2810    2.6266   24.0411 C   0  0  0  0  0  0  0  0  0  0  0  0
   -5.6826    4.2150   28.1812 C   0  0  0  0  0  0  0  0  0  0  0  0
  -11.1431    3.5506   23.5106 C   0  0  0  0  0  0  0  0  0  0  0  0
  -11.5174    4.6729   24.2961 C   0  0  0  0  0  0  0  0  0  0  0  0
  -10.8468    4.9093   25.4742 C   0  0  0  0  0  0  0  0  0  0  0  0
   -9.7970    4.2580   28.2511 C   0  0  0  0  0  0  0  0  0  0  0  0
   -5.3567    2.9789   27.7122 F   0  0  0  0  0  0  0  0  0  0  0  0
   -9.8686    1.4765   23.1563 C   0  0  0  0  0  0  0  0  0  0  0  0
   -8.9828    0.5932   23.5938 C   0  0  0  0  0  0  0  0  0  0  0  0
   -8.5574    0.5570   24.9007 C   0  0  0  0  0  0  0  0  0  0  0  0
   -8.6576    1.8142   25.6770 C   0  0  0  0  0  0  0  0  0  0  0  0
  -11.7662    3.3719   22.4005 F   0  0  0  0  0  0  0  0  0  0  0  0
   -7.5389   -0.4106   25.3274 C   0  0  0  0  0  0  0  0  0  0  0  0
   -6.8106   -0.9525   24.7101 O   0  0  0  0  0  0  0  0  0  0  0  0
   -7.3874   -0.4047   26.7049 O   0  0  0  0  0  0  0  0  0  0  0  0
   -7.9708   -1.0494   27.5259 C   0  0  0  0  0  0  0  0  0  0  0  0
   -7.9126   -2.3388   27.5194 C   0  0  0  0  0  0  0  0  0  0  0  0
   -8.7357   -2.9933   28.4664 C   0  0  0  0  0  0  0  0  0  0  0  0
   -9.7272   -2.2325   29.0862 C   0  0  0  0  0  0  0  0  0  0  0  0
   -9.9770   -0.8912   28.8544 C   0  0  0  0  0  0  0  0  0  0  0  0
   -9.0775   -0.2166   28.0240 C   0  0  0  0  0  0  0  0  0  0  0  0
  1  2  1  0
  1  4  1  0
  4  7  1  0
  2 11  1  1
  7 12  1  0
  8 17  1  0
 15 18  1  0
 18 19  2  0
 18 20  1  0
 20 21  1  0
  2  3  1  0
  6 13  1  0
 13 14  2  0
 14 15  1  0
 15 16  2  0
 16  5  1  0
  3  5  2  0
  5  6  1  0
  6  8  2  0
  8  9  1  0
  9 10  2  0
 10  3  1  0
 21 22  2  0
 22 23  1  0
 23 24  2  0
 24 25  1  0
 25 26  2  0
 26 21  1  0
M  END
$$$$
