No_6907-complexes_sdf/6BKW-FPZ/2024-09-17-14-21-01/
     RDKit          3D

 40 45  0  0  0  0  0  0  0  0999 V2000
   -7.2496    3.8871   27.4508 C   0  0  0  0  0  0  0  0  0  0  0  0
   -7.6161    2.7143   27.1523 C   0  0  0  0  0  0  0  0  0  0  0  0
   -6.9719    1.5838   27.5324 C   0  0  1  0  0  0  0  0  0  0  0  0
   -7.4590    0.2827   27.2615 C   0  0  0  0  0  0  0  0  0  0  0  0
   -8.7521    2.5117   26.3068 C   0  0  0  0  0  0  0  0  0  0  0  0
   -9.2100    1.2391   25.9794 C   0  0  0  0  0  0  0  0  0  0  0  0
   -8.5134    0.1313   26.5112 C   0  0  0  0  0  0  0  0  0  0  0  0
   -8.0343    5.0565   27.1688 C   0  0  0  0  0  0  0  0  0  0  0  0
   -7.6925    6.3666   27.7843 C   0  0  0  0  0  0  0  0  0  0  0  0
   -9.1505    5.0265   26.3637 C   0  0  0  0  0  0  0  0  0  0  0  0
   -9.5086    3.6765   25.9254 C   0  0  0  0  0  0  0  0  0  0  0  0
   -7.3289    7.0693   27.1375 F   0  0  0  0  0  0  0  0  0  0  0  0
   -6.7208   -0.8939   27.8430 C   0  0  0  0  0  0  0  0  0  0  0  0
   -5.4016   -0.7603   28.1837 C   0  0  0  0  0  0  0  0  0  0  0  0
   -4.8707    0.5811   28.2462 C   0  0  1  0  0  0  0  0  0  0  0  0
   -5.5867    1.6789   28.0652 C   0  0  0  0  0  0  0  0  0  0  0  0
   -3.6464    0.7672   28.8401 F   0  0  0  0  0  0  0  0  0  0  0  0
  -10.6632    3.6088   25.0082 C   0  0  0  0  0  0  0  0  0  0  0  0
  -11.9571    3.5424   25.5258 C   0  0  0  0  0  0  0  0  0  0  0  0
  -10.4776    3.6205   23.6293 C   0  0  0  0  0  0  0  0  0  0  0  0
  -11.1530    3.5949   22.8440 C   0  0  1  0  0  0  0  0  0  0  0  0
  -12.9838    3.5627   24.5747 C   0  0  0  0  0  0  0  0  0  0  0  0
  -12.6516    3.6680   23.1938 C   0  0  0  0  0  0  0  0  0  0  0  0
  -11.0047    3.7636   21.3458 C   0  0  0  0  0  0  0  0  0  0  0  0
   -9.7446    4.1752   21.1085 C   0  0  0  0  0  0  0  0  0  0  0  0
  -11.9221    3.3961   20.4125 C   0  0  0  0  0  0  0  0  0  0  0  0
   -6.5637    6.0480   28.6940 F   0  0  0  0  0  0  0  0  0  0  0  0
   -8.7761    6.6942   28.4442 F   0  0  0  0  0  0  0  0  0  0  0  0
   -9.0870   -1.2128   26.1949 C   0  0  0  0  0  0  0  0  0  0  0  0
  -10.2694   -1.3065   26.0267 C   0  0  0  0  0  0  0  0  0  0  0  0
  -10.9701   -2.4623   26.2075 C   0  0  0  0  0  0  0  0  0  0  0  0
  -10.2097   -3.6202   26.2774 C   0  0  0  0  0  0  0  0  0  0  0  0
   -8.8750   -3.5551   26.4667 C   0  0  0  0  0  0  0  0  0  0  0  0
   -8.2805   -2.3462   26.5346 C   0  0  0  0  0  0  0  0  0  0  0  0
   -6.9644   -2.1527   26.9980 C   0  0  2  0  0  0  0  0  0  0  0  0
   -5.9870   -3.1883   26.8523 C   0  0  0  0  0  0  0  0  0  0  0  0
   -5.6773   -3.4948   25.5913 C   0  0  0  0  0  0  0  0  0  0  0  0
   -5.2050   -2.5635   24.7150 C   0  0  0  0  0  0  0  0  0  0  0  0
   -5.9380   -1.6388   24.1806 C   0  0  0  0  0  0  0  0  0  0  0  0
   -6.4638   -1.5171   23.2089 C   0  0  0  0  0  0  0  0  0  0  0  0
  1  2  2  0
  2  3  1  0
  3  4  1  0
  2  5  1  0
  5  6  2  0
  4  7  2  0
  6  7  1  0
  1  8  1  0
  8  9  1  0
  8 10  1  0
  5 11  1  0
 10 11  2  0
  9 12  1  0
  4 13  1  0
 13 14  2  0
 14 15  1  0
  3 16  1  6
 15 16  1  0
 15 17  1  1
 11 18  1  0
 18 19  2  0
 18 20  1  0
 20 21  1  0
 19 22  1  0
 21 23  1  0
 22 23  2  0
 21 24  1  6
 24 25  1  0
 24 26  1  0
  9 27  1  0
  9 28  1  0
  7 29  1  0
 29 30  1  0
 30 31  2  0
 31 32  1  0
 32 33  2  0
 29 34  2  0
 33 34  1  0
 13 35  1  0
 34 35  1  0
 35 36  1  1
 36 37  1  0
 37 38  1  0
 38 39  1  0
 39 40  2  0
M  END
$$$$
