No_626-complexes_sdf/6BKW-FPZ/2024-09-17-14-21-01/
     RDKit          3D

 13 14  0  0  0  0  0  0  0  0999 V2000
   -7.7129    4.2099   27.0854 C   0  0  0  0  0  0  0  0  0  0  0  0
   -7.7814    5.1722   27.8972 C   0  0  0  0  0  0  0  0  0  0  0  0
   -8.8776    3.8408   26.3416 C   0  0  0  0  0  0  0  0  0  0  0  0
   -8.9136    2.6330   25.5655 C   0  0  0  0  0  0  0  0  0  0  0  0
   -8.8361    6.1389   27.9032 C   0  0  0  0  0  0  0  0  0  0  0  0
   -9.8295    4.8219   26.2725 C   0  0  0  0  0  0  0  0  0  0  0  0
   -9.8494    5.9177   27.0428 C   0  0  0  0  0  0  0  0  0  0  0  0
   -9.7678    2.4618   24.6133 N   0  0  0  0  0  0  0  0  0  0  0  0
  -10.5173    3.5155   24.2681 C   0  0  0  0  0  0  0  0  0  0  0  0
  -10.7349    4.5808   25.1620 N   0  0  0  0  0  0  0  0  0  0  0  0
  -11.4158    3.4160   23.2844 N   0  0  0  0  0  0  0  0  0  0  0  0
  -11.0404    3.0697   22.0488 C   0  0  0  0  0  0  0  0  0  0  0  0
  -11.8467    3.2456   20.9507 C   0  0  0  0  0  0  0  0  0  0  0  0
 11 12  1  0
 12 13  2  0
 11  9  1  0
  3  4  2  0
  4  8  1  0
  8  9  2  0
  9 10  1  0
 10  6  2  0
  1  2  2  0
  2  5  1  0
  5  7  2  0
  7  6  1  0
  6  3  1  0
  3  1  1  0
M  END
$$$$
