No_6662-complexes_sdf/6BKW-FPZ/2024-09-17-14-21-01/
     RDKit          3D

 19 21  0  0  0  0  0  0  0  0999 V2000
   -7.2496    3.8871   27.4508 C   0  0  0  0  0  0  0  0  0  0  0  0
   -8.5096    4.0291   27.2770 C   0  0  0  0  0  0  0  0  0  0  0  0
   -9.3502    2.8685   26.8763 C   0  0  0  0  0  0  0  0  0  0  0  0
   -6.6288    2.5513   27.4938 C   0  0  0  0  0  0  0  0  0  0  0  0
   -7.4365    1.4714   27.2032 C   0  0  0  0  0  0  0  0  0  0  0  0
   -8.7772    1.6579   26.9338 C   0  0  0  0  0  0  0  0  0  0  0  0
   -9.1078    5.3660   27.2249 C   0  0  0  0  0  0  0  0  0  0  0  0
   -8.5994    6.3712   27.0779 C   0  0  0  0  0  0  0  0  0  0  0  0
   -9.2285    7.7462   27.0104 C   0  0  0  0  0  0  0  0  0  0  0  0
   -6.6247    0.2074   27.2622 C   0  0  0  0  0  0  0  0  0  0  0  0
   -6.8052   -0.4535   28.0032 O   0  0  0  0  0  0  0  0  0  0  0  0
   -5.8043    0.0326   26.2143 O   0  0  0  0  0  0  0  0  0  0  0  0
  -10.5877    5.3061   27.4468 C   0  0  0  0  0  0  0  0  0  0  0  0
  -11.2380    4.3383   27.9450 C   0  0  0  0  0  0  0  0  0  0  0  0
  -12.6765    4.2344   28.2707 C   0  0  0  0  0  0  0  0  0  0  0  0
  -13.1931    3.2014   29.0163 C   0  0  0  0  0  0  0  0  0  0  0  0
  -12.3448    2.0554   29.1539 C   0  0  0  0  0  0  0  0  0  0  0  0
  -11.0325    2.0504   28.7563 C   0  0  0  0  0  0  0  0  0  0  0  0
  -10.4556    3.1292   28.2263 C   0  0  0  0  0  0  0  0  0  0  0  0
  2  7  1  0
  7  8  2  3
  8  9  1  0
  5 10  1  0
 10 11  2  0
 10 12  1  0
  7 13  1  0
 13 14  1  0
  3 19  1  0
 14 15  2  0
 15 16  1  0
 16 17  2  0
 17 18  1  0
 18 19  2  0
 19 14  1  0
  1  2  2  0
  2  3  1  0
  3  6  2  0
  6  5  1  0
  5  4  2  0
  4  1  1  0
M  END
$$$$
