No_62-complexes_sdf/6BKW-FPZ/2024-09-17-14-21-01/
     RDKit          3D

 20 21  0  0  0  0  0  0  0  0999 V2000
   -7.7129    4.2099   27.0854 C   0  0  0  0  0  0  0  0  0  0  0  0
   -8.9133    4.4736   27.0998 C   0  0  0  0  0  0  0  0  0  0  0  0
   -9.7135    3.9633   26.0300 C   0  0  0  0  0  0  0  0  0  0  0  0
   -6.8420    4.9760   28.0851 C   0  0  0  0  0  0  0  0  0  0  0  0
  -10.9164    3.4776   26.1172 C   0  0  2  0  0  0  0  0  0  0  0  0
  -11.6897    3.8137   27.2914 C   0  0  0  0  0  0  0  0  0  0  0  0
  -13.0052    3.3302   27.4798 C   0  0  2  0  0  0  0  0  0  0  0  0
   -7.3607    5.9132   28.5893 N   0  0  0  0  0  0  0  0  0  0  0  0
  -13.6095    3.5776   28.7498 C   0  0  0  0  0  0  0  0  0  0  0  0
   -9.2896    5.6321   27.9425 C   0  0  0  0  0  0  0  0  0  0  0  0
   -8.5082    6.3610   28.6028 C   0  0  0  0  0  0  0  0  0  0  0  0
  -13.1624    1.8245   27.3897 C   0  0  0  0  0  0  0  0  0  0  0  0
  -12.6855    1.2664   26.3675 C   0  0  0  0  0  0  0  0  0  0  0  0
  -11.0191    1.8742   26.0969 C   0  0  0  0  0  0  0  0  0  0  0  0
  -13.8509    3.9435   26.3858 C   0  0  0  0  0  0  0  0  0  0  0  0
  -14.7691    3.2459   29.1172 C   0  0  0  0  0  0  0  0  0  0  0  0
  -15.2455    3.6673   30.4178 C   0  0  0  0  0  0  0  0  0  0  0  0
  -16.4519    3.6848   30.8300 C   0  0  0  0  0  0  0  0  0  0  0  0
  -17.3585    3.2287   29.9198 C   0  0  0  0  0  0  0  0  0  0  0  0
  -17.0541    2.7505   28.7105 C   0  0  0  0  0  0  0  0  0  0  0  0
  2  3  1  0
  5  6  1  0
  6  7  1  0
  7  9  1  0
  7 12  1  0
  5 14  1  0
 13 14  1  0
  7 15  1  6
  9 16  2  3
 16 17  1  0
 17 18  2  3
 18 19  1  0
 19 20  2  0
  5  3  1  1
 13 12  1  0
  1  2  2  0
  2 10  1  0
 10 11  2  0
 11  8  1  0
  8  4  2  0
  4  1  1  0
M  END
$$$$
