No_6369-complexes_sdf/6BKW-FPZ/2024-09-17-14-21-01/
     RDKit          3D

 40 44  0  0  0  0  0  0  0  0999 V2000
   -7.9040    3.9820   27.1177 C   0  0  0  0  0  0  0  0  0  0  0  0
   -8.2057    2.8231   26.8733 C   0  0  0  0  0  0  0  0  0  0  0  0
   -8.7695    5.0740   26.7916 C   0  0  0  0  0  0  0  0  0  0  0  0
   -9.9618    4.7598   26.1630 C   0  0  0  0  0  0  0  0  0  0  0  0
   -9.4200    2.4524   26.2850 C   0  0  0  0  0  0  0  0  0  0  0  0
  -10.2590    3.4815   25.9250 C   0  0  0  0  0  0  0  0  0  0  0  0
   -8.3840    6.4693   27.0829 C   0  0  0  0  0  0  0  0  0  0  0  0
   -7.7453    6.8270   28.1334 N   0  0  0  0  0  0  0  0  0  0  0  0
   -8.7949    7.3877   26.2867 O   0  0  0  0  0  0  0  0  0  0  0  0
   -7.2804    1.6722   27.2900 C   0  0  0  0  0  0  0  0  0  0  0  0
   -7.5955    0.3214   27.1904 C   0  0  0  0  0  0  0  0  0  0  0  0
   -6.6968   -0.6160   27.6437 C   0  0  0  0  0  0  0  0  0  0  0  0
   -5.5891   -0.2522   28.0140 C   0  0  0  0  0  0  0  0  0  0  0  0
   -5.1054    1.1031   28.1126 C   0  0  0  0  0  0  0  0  0  0  0  0
   -5.9352    2.0286   27.7381 C   0  0  0  0  0  0  0  0  0  0  0  0
   -4.6527   -1.2311   28.5035 F   0  0  0  0  0  0  0  0  0  0  0  0
  -11.4299    3.1767   25.2193 N   0  0  0  0  0  0  0  0  0  0  0  0
  -12.4892    2.7964   25.8069 C   0  0  1  0  0  0  0  0  0  0  0  0
  -12.6183    2.3904   26.8612 C   0  0  0  0  0  0  0  0  0  0  0  0
  -13.2541    2.2105   27.7338 C   0  0  0  0  0  0  0  0  0  0  0  0
  -13.0102    1.5120   29.0934 C   0  0  0  0  0  0  0  0  0  0  0  0
  -11.7205    0.9730   29.1486 C   0  0  0  0  0  0  0  0  0  0  0  0
  -10.8697    1.0506   28.1405 C   0  0  0  0  0  0  0  0  0  0  0  0
  -11.1526    1.7124   27.0387 C   0  0  0  0  0  0  0  0  0  0  0  0
  -10.3849    1.4187   25.9743 N   0  0  0  0  0  0  0  0  0  0  0  0
  -13.8107    3.5118   25.2358 C   0  0  0  0  0  0  0  0  0  0  0  0
  -13.9510    3.7391   23.8016 C   0  0  0  0  0  0  0  0  0  0  0  0
  -15.0657    2.9423   25.7383 C   0  0  0  0  0  0  0  0  0  0  0  0
  -16.1951    3.4289   25.0734 C   0  0  0  0  0  0  0  0  0  0  0  0
  -15.0600    4.3846   23.2799 C   0  0  0  0  0  0  0  0  0  0  0  0
  -16.2119    4.0613   23.8855 C   0  0  0  0  0  0  0  0  0  0  0  0
  -13.9406    1.4286   30.1975 C   0  0  0  0  0  0  0  0  0  0  0  0
  -14.6112    2.2548   30.0928 F   0  0  0  0  0  0  0  0  0  0  0  0
  -14.5778    0.2488   30.0901 F   0  0  0  0  0  0  0  0  0  0  0  0
  -13.4287    1.7042   31.2993 F   0  0  0  0  0  0  0  0  0  0  0  0
  -17.5612    3.1872   25.7685 C   0  0  0  0  0  0  0  0  0  0  0  0
  -17.6972    3.3327   27.0126 C   0  0  0  0  0  0  0  0  0  0  0  0
  -18.9514    2.9884   27.7047 C   0  0  0  0  0  0  0  0  0  0  0  0
  -19.9513    2.5127   26.9223 C   0  0  0  0  0  0  0  0  0  0  0  0
  -19.7628    2.3464   25.5820 C   0  0  0  0  0  0  0  0  0  0  0  0
  3  7  1  0
  7  8  1  0
  7  9  2  0
  2 10  1  0
 13 16  1  0
  6 17  1  0
 17 18  1  0
  5 25  1  0
 24 25  1  0
 18 26  1  1
 21 32  1  0
 32 33  1  0
 32 34  1  0
 32 35  1  0
 29 36  1  0
 36 37  2  3
 37 38  1  0
 38 39  2  3
 39 40  1  0
 18 19  1  0
 26 27  2  0
 27 30  1  0
 30 31  2  0
 31 29  1  0
 29 28  2  0
 28 26  1  0
 19 20  2  0
 20 21  1  0
 21 22  2  0
 22 23  1  0
 23 24  2  0
 24 19  1  0
  1  2  2  0
  2  5  1  0
  5  6  2  0
  6  4  1  0
  4  3  2  0
  3  1  1  0
 10 11  2  0
 11 12  1  0
 12 13  2  0
 13 14  1  0
 14 15  2  0
 15 10  1  0
M  END
$$$$
