No_6374-complexes_sdf/6BKW-FPZ/2024-09-17-14-21-01/
     RDKit          3D

 36 41  0  0  0  0  0  0  0  0999 V2000
   -7.9040    3.9820   27.1177 C   0  0  0  0  0  0  0  0  0  0  0  0
   -7.8663    4.8694   27.9238 C   0  0  0  0  0  0  0  0  0  0  0  0
   -7.4698    2.6989   27.4277 C   0  0  0  0  0  0  0  0  0  0  0  0
   -7.9683    1.5964   26.8266 C   0  0  1  0  0  0  0  0  0  0  0  0
   -8.9446    1.7923   25.8533 C   0  0  0  0  0  0  0  0  0  0  0  0
   -9.4405    2.9988   25.5757 C   0  0  1  0  0  0  0  0  0  0  0  0
   -8.9424    4.1117   26.2388 C   0  0  0  0  0  0  0  0  0  0  0  0
   -8.2460    6.2906   27.6575 C   0  0  0  0  0  0  0  0  0  0  0  0
   -9.1845    6.5830   26.6401 C   0  0  0  0  0  0  0  0  0  0  0  0
   -9.5389    5.3912   25.8820 C   0  0  0  0  0  0  0  0  0  0  0  0
   -7.4004    0.2532   27.0943 C   0  0  0  0  0  0  0  0  0  0  0  0
   -8.2079   -0.7844   27.4236 C   0  0  0  0  0  0  0  0  0  0  0  0
   -5.9920    0.0808   27.0630 C   0  0  0  0  0  0  0  0  0  0  0  0
   -5.4091   -1.1224   27.2348 C   0  0  0  0  0  0  0  0  0  0  0  0
   -7.6419   -2.0461   27.7319 C   0  0  0  0  0  0  0  0  0  0  0  0
   -6.2640   -2.2066   27.6654 C   0  0  0  0  0  0  0  0  0  0  0  0
  -10.4013    3.1044   24.4617 C   0  0  0  0  0  0  0  0  0  0  0  0
  -11.5379    3.8210   24.6446 C   0  0  0  0  0  0  0  0  0  0  0  0
  -10.0933    2.5337   23.2512 C   0  0  0  0  0  0  0  0  0  0  0  0
  -10.8271    2.7071   22.1188 C   0  0  0  0  0  0  0  0  0  0  0  0
  -12.3959    3.9851   23.4978 C   0  0  0  0  0  0  0  0  0  0  0  0
  -12.0335    3.4188   22.2668 C   0  0  0  0  0  0  0  0  0  0  0  0
   -3.9819   -1.2451   27.2479 C   0  0  2  0  0  0  0  0  0  0  0  0
   -3.2800   -0.2071   26.6875 C   0  0  0  0  0  0  0  0  0  0  0  0
   -3.2861   -2.4274   27.5586 C   0  0  0  0  0  0  0  0  0  0  0  0
   -2.5202    0.7053   27.6596 C   0  0  0  0  0  0  0  0  0  0  0  0
   -3.0943   -2.6745   28.8121 C   0  0  0  0  0  0  0  0  0  0  0  0
   -2.9881   -3.8307   29.2408 C   0  0  0  0  0  0  0  0  0  0  0  0
   -2.8487   -1.5385   29.7447 C   0  0  0  0  0  0  0  0  0  0  0  0
   -2.3350   -1.8433   31.0432 C   0  0  0  0  0  0  0  0  0  0  0  0
   -2.3231   -0.7299   32.0609 C   0  0  0  0  0  0  0  0  0  0  0  0
   -2.0949   -1.0863   33.4056 C   0  0  0  0  0  0  0  0  0  0  0  0
   -2.6690   -4.1313   30.7227 C   0  0  0  0  0  0  0  0  0  0  0  0
   -2.4167   -3.0549   31.6001 C   0  0  0  0  0  0  0  0  0  0  0  0
   -1.8793   -2.1975   33.7836 N   0  0  0  0  0  0  0  0  0  0  0  0
   -2.1297   -3.2905   32.9228 C   0  0  0  0  0  0  0  0  0  0  0  0
  1  3  1  0
  3  4  1  0
  4  5  1  0
  5  6  1  0
  6  7  1  0
  4 11  1  6
  6 17  1  6
 14 23  1  0
 23 24  1  6
 23 25  1  0
 24 26  1  0
 25 27  1  0
 27 28  2  0
 28 33  1  0
 33 34  2  0
 30 29  2  0
 29 27  1  0
  1  2  2  0
  2  8  1  0
  8  9  2  0
  9 10  1  0
 10  7  2  0
  7  1  1  0
 17 18  2  0
 18 21  1  0
 21 22  2  0
 22 20  1  0
 20 19  2  0
 19 17  1  0
 30 31  1  0
 31 32  2  0
 32 35  1  0
 35 36  2  0
 36 34  1  0
 34 30  1  0
 11 12  2  0
 12 15  1  0
 15 16  2  0
 16 14  1  0
 14 13  2  0
 13 11  1  0
M  END
$$$$
