No_6228-complexes_sdf/6BKW-FPZ/2024-09-17-14-21-01/
     RDKit          3D

 30 33  0  0  0  0  0  0  0  0999 V2000
   -7.2496    3.8871   27.4508 C   0  0  0  0  0  0  0  0  0  0  0  0
   -7.6161    2.7143   27.1523 C   0  0  0  0  0  0  0  0  0  0  0  0
   -8.6212    2.2239   26.4074 C   0  0  0  0  0  0  0  0  0  0  0  0
   -8.2540    4.9237   27.1711 C   0  0  0  0  0  0  0  0  0  0  0  0
   -9.3729    4.5806   26.4433 C   0  0  0  0  0  0  0  0  0  0  0  0
   -9.5830    3.2969   26.1026 C   0  0  0  0  0  0  0  0  0  0  0  0
   -8.1546    6.3411   27.5271 C   0  0  0  0  0  0  0  0  0  0  0  0
   -9.0024    7.3256   26.9973 C   0  0  0  0  0  0  0  0  0  0  0  0
   -6.5835    1.5600   27.5756 C   0  0  0  0  0  0  0  0  0  0  0  0
   -6.8424    0.1844   27.4730 C   0  0  0  0  0  0  0  0  0  0  0  0
   -8.0925   -0.0501   26.7495 C   0  0  0  0  0  0  0  0  0  0  0  0
   -8.9426    0.8862   26.2218 C   0  0  0  0  0  0  0  0  0  0  0  0
   -5.7293   -1.0561   28.0804 Br  0  0  0  0  0  0  0  0  0  0  0  0
  -10.7557    2.9569   25.2485 C   0  0  0  0  0  0  0  0  0  0  0  0
  -11.9363    2.8106   25.7959 C   0  0  0  0  0  0  0  0  0  0  0  0
  -12.1635    3.0202   27.1697 C   0  0  0  0  0  0  0  0  0  0  0  0
  -13.4993    2.9174   27.7784 C   0  0  0  0  0  0  0  0  0  0  0  0
  -13.4758    3.0850   29.1616 C   0  0  0  0  0  0  0  0  0  0  0  0
  -14.6036    3.0311   29.9719 C   0  0  0  0  0  0  0  0  0  0  0  0
  -15.8189    2.9036   29.2999 C   0  0  0  0  0  0  0  0  0  0  0  0
  -15.8438    2.8260   27.9556 C   0  0  0  0  0  0  0  0  0  0  0  0
  -14.7194    2.8908   27.2554 C   0  0  0  0  0  0  0  0  0  0  0  0
  -10.5251    2.7574   23.8797 C   0  0  0  0  0  0  0  0  0  0  0  0
  -11.3389    2.3299   22.9924 C   0  0  0  0  0  0  0  0  0  0  0  0
  -12.7242    2.2496   23.5674 C   0  0  0  0  0  0  0  0  0  0  0  0
  -12.9884    2.4526   24.8823 C   0  0  0  0  0  0  0  0  0  0  0  0
  -11.3504    3.6363   27.9399 O   0  0  0  0  0  0  0  0  0  0  0  0
  -13.8251    1.8398   22.6552 C   0  0  0  0  0  0  0  0  0  0  0  0
  -14.4103    2.4275   22.0349 C   0  0  0  0  0  0  0  0  0  0  0  0
  -15.5455    2.0053   21.1526 C   0  0  0  0  0  0  0  0  0  0  0  0
  4  7  1  0
  7  8  1  0
 10 13  1  0
  6 14  1  0
 15 16  1  0
 16 17  1  0
 16 27  2  0
 25 28  1  0
 28 29  2  3
 29 30  1  0
 17 18  2  0
 18 19  1  0
 19 20  2  0
 20 21  1  0
 21 22  2  0
 22 17  1  0
  1  2  2  0
  3  6  2  0
  6  5  1  0
  5  4  2  0
  4  1  1  0
 14 15  2  0
 15 26  1  0
 26 25  2  0
 25 24  1  0
 24 23  2  0
 23 14  1  0
  2  3  1  0
  3 12  1  0
 12 11  2  0
 11 10  1  0
 10  9  2  0
  9  2  1  0
M  END
$$$$
