No_6944-complexes_sdf/6BKW-FPZ/2024-09-17-14-21-01/
     RDKit          3D

 23 27  0  0  0  0  0  0  0  0999 V2000
   -7.7129    4.2099   27.0854 C   0  0  0  0  0  0  0  0  0  0  0  0
   -7.7814    5.1722   27.8972 C   0  0  0  0  0  0  0  0  0  0  0  0
   -7.3155    2.9700   27.6145 C   0  0  0  0  0  0  0  0  0  0  0  0
   -7.9010    1.7962   27.2023 C   0  0  0  0  0  0  0  0  0  0  0  0
   -8.9578    1.9047   26.2707 C   0  0  0  0  0  0  0  0  0  0  0  0
   -9.3989    3.1000   25.8096 C   0  0  0  0  0  0  0  0  0  0  0  0
   -8.8948    4.1615   26.3218 C   0  0  0  0  0  0  0  0  0  0  0  0
   -8.2271    6.4668   27.5438 N   0  0  0  0  0  0  0  0  0  0  0  0
   -9.0798    6.6377   26.5319 C   0  0  0  0  0  0  0  0  0  0  0  0
   -9.5047    5.4887   25.9469 C   0  0  0  0  0  0  0  0  0  0  0  0
   -7.2798    0.5007   27.5396 C   0  0  0  0  0  0  0  0  0  0  0  0
   -8.0803   -0.6680   27.6405 C   0  0  0  0  0  0  0  0  0  0  0  0
   -5.8820    0.2465   27.2277 C   0  0  0  0  0  0  0  0  0  0  0  0
   -5.3601   -0.8638   27.0668 C   0  0  0  0  0  0  0  0  0  0  0  0
   -7.4901   -1.9282   27.6719 C   0  0  0  0  0  0  0  0  0  0  0  0
   -6.1332   -2.0487   27.4101 C   0  0  0  0  0  0  0  0  0  0  0  0
  -10.4188    3.0289   24.7683 C   0  0  0  0  0  0  0  0  0  0  0  0
  -10.2301    2.3688   23.6282 C   0  0  0  0  0  0  0  0  0  0  0  0
  -10.9313    2.5407   22.4844 C   0  0  0  0  0  0  0  0  0  0  0  0
  -11.8893    3.5549   22.4531 C   0  0  0  0  0  0  0  0  0  0  0  0
  -12.0677    4.3658   23.5623 C   0  0  0  0  0  0  0  0  0  0  0  0
  -11.2896    4.2263   24.6640 C   0  0  0  0  0  0  0  0  0  0  0  0
  -10.6075    5.3243   25.0380 C   0  0  0  0  0  0  0  0  0  0  0  0
  4 11  1  0
  6 17  1  0
 10 23  1  0
 22 23  1  0
  1  2  2  0
  2  8  1  0
  8  9  2  0
  9 10  1  0
 10  7  2  0
 17 18  2  0
 18 19  1  0
 19 20  2  0
 20 21  1  0
 21 22  2  0
 22 17  1  0
  1  3  1  0
  3  4  2  0
  4  5  1  0
  5  6  2  0
  6  7  1  0
  7  1  1  0
 11 12  2  0
 12 15  1  0
 15 16  2  0
 16 14  1  0
 14 13  2  0
 13 11  1  0
M  END
$$$$
