No_6788-complexes_sdf/6BKW-FPZ/2024-09-17-14-21-01/
     RDKit          3D

 18 19  0  0  0  0  0  0  0  0999 V2000
   -7.2496    3.8871   27.4508 C   0  0  0  0  0  0  0  0  0  0  0  0
   -7.6161    2.7143   27.1523 C   0  0  0  0  0  0  0  0  0  0  0  0
   -8.8302    2.4659   26.5056 C   0  0  0  0  0  0  0  0  0  0  0  0
   -8.1584    5.0090   27.3234 C   0  0  0  0  0  0  0  0  0  0  0  0
   -9.3788    4.7965   26.7695 C   0  0  0  0  0  0  0  0  0  0  0  0
   -9.7028    3.5649   26.3276 C   0  0  0  0  0  0  0  0  0  0  0  0
   -6.7190    1.5585   27.3667 C   0  0  0  0  0  0  0  0  0  0  0  0
   -5.4774    1.7392   28.0696 C   0  0  0  0  0  0  0  0  0  0  0  0
   -4.6023    0.6521   28.2584 C   0  0  0  0  0  0  0  0  0  0  0  0
   -5.0190   -0.6205   27.9573 C   0  0  0  0  0  0  0  0  0  0  0  0
   -7.0342    0.2294   27.1387 C   0  0  0  0  0  0  0  0  0  0  0  0
   -6.2682   -0.7959   27.4190 C   0  0  0  0  0  0  0  0  0  0  0  0
   -7.7046    6.3710   27.7725 C   0  0  0  0  0  0  0  0  0  0  0  0
   -3.3624    0.7566   28.8807 O   0  0  0  0  0  0  0  0  0  0  0  0
   -7.6583    7.3603   26.7110 C   0  0  0  0  0  0  0  0  0  0  0  0
  -10.9990    3.3848   25.6433 C   0  0  0  0  0  0  0  0  0  0  0  0
  -12.1248    3.3072   26.3338 C   0  0  0  0  0  0  0  0  0  0  0  0
  -13.3999    3.2297   25.7434 C   0  0  0  0  0  0  0  0  0  0  0  0
  2  7  1  0
  4 13  1  0
  9 14  1  0
 13 15  1  0
  6 16  1  0
 16 17  2  3
 17 18  1  0
  7  8  2  0
  8  9  1  0
  9 10  2  0
 10 12  1  0
 12 11  2  0
 11  7  1  0
  1  2  2  0
  2  3  1  0
  3  6  2  0
  6  5  1  0
  5  4  2  0
  4  1  1  0
M  END
$$$$
