No_6909-complexes_sdf/6BKW-FPZ/2024-09-17-14-21-01/
     RDKit          3D

 18 20  0  0  0  0  0  0  0  0999 V2000
   -7.2496    3.8871   27.4508 C   0  0  0  0  0  0  0  0  0  0  0  0
   -8.5096    4.0291   27.2770 C   0  0  0  0  0  0  0  0  0  0  0  0
   -9.2669    5.1645   27.5845 C   0  0  2  0  0  0  0  0  0  0  0  0
   -8.4566    6.3212   27.8001 C   0  0  0  0  0  0  0  0  0  0  0  0
   -6.6044    2.5801   27.2072 C   0  0  0  0  0  0  0  0  0  0  0  0
   -7.3819    1.4822   27.0097 C   0  0  0  0  0  0  0  0  0  0  0  0
   -8.7419    1.6392   26.7945 C   0  0  0  0  0  0  0  0  0  0  0  0
   -9.3915    2.8607   27.0849 C   0  0  0  0  0  0  0  0  0  0  0  0
  -10.6440    5.2273   27.7832 C   0  0  0  0  0  0  0  0  0  0  0  0
   -9.5560    0.4513   26.5525 C   0  0  0  0  0  0  0  0  0  0  0  0
  -10.6307    0.3188   26.2260 C   0  0  0  0  0  0  0  0  0  0  0  0
  -11.4339    1.5790   26.1012 C   0  0  0  0  0  0  0  0  0  0  0  0
  -10.8042    2.9434   26.8001 C   0  0  0  0  0  0  0  0  0  0  0  0
  -11.5520    4.0303   27.1693 C   0  0  1  0  0  0  0  0  0  0  0  0
  -12.9312    4.1489   27.1555 C   0  0  0  0  0  0  0  0  0  0  0  0
   -5.2664    2.5244   27.4898 O   0  0  0  0  0  0  0  0  0  0  0  0
  -13.5610    4.2780   26.0098 C   0  0  0  0  0  0  0  0  0  0  0  0
  -14.9781    4.4025   25.9873 C   0  0  0  0  0  0  0  0  0  0  0  0
  2  3  1  0
  3  4  1  1
  3  9  1  0
 14  9  1  1
 13 14  1  0
 14 15  1  0
  5 16  1  0
 15 17  2  3
 17 18  1  0
  8 13  2  0
 13 12  1  0
 12 11  2  0
 11 10  1  0
 10  7  2  0
  1  2  2  0
  2  8  1  0
  8  7  1  0
  7  6  1  0
  6  5  2  0
  5  1  1  0
M  END
$$$$
