No_6964-complexes_sdf/6BKW-FPZ/2024-09-17-14-21-01/
     RDKit          3D

 21 24  0  0  0  0  0  0  0  0999 V2000
   -7.9040    3.9820   27.1177 C   0  0  0  0  0  0  0  0  0  0  0  0
   -7.8663    4.8694   27.9238 C   0  0  0  0  0  0  0  0  0  0  0  0
   -7.4698    2.6989   27.4277 C   0  0  0  0  0  0  0  0  0  0  0  0
   -7.9683    1.5964   26.8266 C   0  0  1  0  0  0  0  0  0  0  0  0
   -8.9447    1.7923   25.8533 C   0  0  0  0  0  0  0  0  0  0  0  0
   -9.4405    2.9988   25.5757 C   0  0  0  0  0  0  0  0  0  0  0  0
   -8.9424    4.1117   26.2388 C   0  0  0  0  0  0  0  0  0  0  0  0
   -8.0525    6.0889   27.7934 N   0  0  0  0  0  0  0  0  0  0  0  0
   -7.4419    0.2917   27.0869 C   0  0  0  0  0  0  0  0  0  0  0  0
   -6.1735    0.1397   27.6280 C   0  0  0  0  0  0  0  0  0  0  0  0
   -5.6464   -1.1149   27.9300 C   0  0  0  0  0  0  0  0  0  0  0  0
   -6.4494   -2.1926   27.7312 C   0  0  0  0  0  0  0  0  0  0  0  0
   -7.8103   -1.1244   27.0639 C   0  0  0  0  0  0  0  0  0  0  0  0
   -9.4639    5.3931   25.9509 C   0  0  0  0  0  0  0  0  0  0  0  0
   -8.9310    6.4629   26.7982 C   0  0  0  0  0  0  0  0  0  0  0  0
   -4.2815   -1.3004   28.5552 C   0  0  0  0  0  0  0  0  0  0  0  0
   -4.1045   -1.0727   29.8286 C   0  0  0  0  0  0  0  0  0  0  0  0
   -2.8821   -1.1157   30.4663 C   0  0  0  0  0  0  0  0  0  0  0  0
   -1.7752   -1.3976   29.6392 C   0  0  0  0  0  0  0  0  0  0  0  0
   -1.9254   -1.5203   28.2857 C   0  0  0  0  0  0  0  0  0  0  0  0
   -3.1733   -1.4037   27.6980 C   0  0  0  0  0  0  0  0  0  0  0  0
  1  3  1  0
  3  4  1  0
  4  5  1  0
  5  6  1  0
  6  7  1  0
  4  9  1  6
  9 10  2  0
 10 11  1  0
 11 12  2  0
  9 13  1  0
 12 13  1  0
 11 16  1  0
 16 17  2  0
 17 18  1  0
 18 19  2  0
 19 20  1  0
 20 21  2  0
 21 16  1  0
  1  2  2  0
  2  8  1  0
  8 15  2  0
 15 14  1  0
 14  7  2  0
  7  1  1  0
M  END
$$$$
