No_6345-complexes_sdf/6BKW-FPZ/2024-09-17-14-21-01/
     RDKit          3D

 12 12  0  0  0  0  0  0  0  0999 V2000
   -7.2496    3.8871   27.4508 C   0  0  0  0  0  0  0  0  0  0  0  0
   -7.9379    4.9063   27.8518 C   0  0  0  0  0  0  0  0  0  0  0  0
   -8.7729    5.5444   27.0168 C   0  0  0  0  0  0  0  0  0  0  0  0
   -7.7708    3.0049   26.4155 C   0  0  0  0  0  0  0  0  0  0  0  0
   -9.3916    4.8208   25.9624 C   0  0  0  0  0  0  0  0  0  0  0  0
   -8.8052    3.5944   25.6431 C   0  0  0  0  0  0  0  0  0  0  0  0
   -9.4401    2.8282   24.5609 C   0  0  2  0  0  0  0  0  0  0  0  0
   -9.0590    1.3207   24.2136 Cl  0  0  0  0  0  0  0  0  0  0  0  0
  -10.3779    3.5553   23.6929 C   0  0  0  0  0  0  0  0  0  0  0  0
  -10.9884    4.3607   23.5556 C   0  0  0  0  0  0  0  0  0  0  0  0
  -11.8867    4.4912   22.4697 C   0  0  0  0  0  0  0  0  0  0  0  0
  -11.8230    3.6131   21.5164 C   0  0  0  0  0  0  0  0  0  0  0  0
  6  7  1  0
  7  8  1  6
  7  9  1  0
  9 10  2  3
 10 11  1  0
 11 12  2  0
  1  2  2  0
  2  3  1  0
  3  5  2  0
  5  6  1  0
  6  4  2  0
  4  1  1  0
M  END
$$$$
