No_6337-complexes_sdf/6BKW-FPZ/2024-09-17-14-21-01/
     RDKit          3D

 37 41  0  0  0  0  0  0  0  0999 V2000
   -7.9040    3.9820   27.1177 C   0  0  0  0  0  0  0  0  0  0  0  0
   -8.2057    2.8231   26.8733 C   0  0  0  0  0  0  0  0  0  0  0  0
   -7.4766    1.7477   27.4593 C   0  0  0  0  0  0  0  0  0  0  0  0
   -8.7468    5.1251   26.6967 C   0  0  0  0  0  0  0  0  0  0  0  0
   -9.7234    4.8589   25.8202 C   0  0  0  0  0  0  0  0  0  0  0  0
   -9.9711    3.5858   25.4266 C   0  0  0  0  0  0  0  0  0  0  0  0
   -9.2266    2.4957   25.9600 C   0  0  0  0  0  0  0  0  0  0  0  0
   -6.1241    1.9216   27.8574 C   0  0  0  0  0  0  0  0  0  0  0  0
   -5.2640    0.7757   28.0398 C   0  0  0  0  0  0  0  0  0  0  0  0
   -5.8084   -0.4565   28.0178 C   0  0  0  0  0  0  0  0  0  0  0  0
   -7.8255    0.3686   27.2831 C   0  0  0  0  0  0  0  0  0  0  0  0
   -7.0462   -0.5056   27.6597 C   0  0  0  0  0  0  0  0  0  0  0  0
   -8.4142    6.5126   27.1033 C   0  0  0  0  0  0  0  0  0  0  0  0
   -7.9605    7.6085   27.1024 N   0  0  0  0  0  0  0  0  0  0  0  0
   -3.9888    1.0790   28.5076 O   0  0  0  0  0  0  0  0  0  0  0  0
   -3.1665    0.0096   28.4640 C   0  0  1  0  0  0  0  0  0  0  0  0
   -2.3650   -0.1995   27.3653 C   0  0  0  0  0  0  0  0  0  0  0  0
   -2.9663   -0.8656   26.4038 C   0  0  0  0  0  0  0  0  0  0  0  0
   -3.9969   -0.4543   25.7587 C   0  0  0  0  0  0  0  0  0  0  0  0
   -4.6751   -1.2197   24.7293 C   0  0  0  0  0  0  0  0  0  0  0  0
   -4.2738   -2.5317   24.5675 C   0  0  0  0  0  0  0  0  0  0  0  0
   -3.0904   -2.9896   25.1724 C   0  0  0  0  0  0  0  0  0  0  0  0
   -2.3969   -2.1917   26.0942 C   0  0  0  0  0  0  0  0  0  0  0  0
   -2.8543   -0.6045   29.7441 C   0  0  0  0  0  0  0  0  0  0  0  0
   -3.6114   -0.2658   30.9252 C   0  0  0  0  0  0  0  0  0  0  0  0
   -3.5528   -1.0523   31.8976 C   0  0  0  0  0  0  0  0  0  0  0  0
   -1.9949   -1.6741   29.9411 C   0  0  0  0  0  0  0  0  0  0  0  0
   -1.8427   -2.4091   31.0214 C   0  0  0  0  0  0  0  0  0  0  0  0
   -2.6240   -2.0274   32.1709 C   0  0  0  0  0  0  0  0  0  0  0  0
   -2.5192   -2.8028   33.4263 C   0  0  2  0  0  0  0  0  0  0  0  0
   -2.5234   -2.2942   34.5566 C   0  0  0  0  0  0  0  0  0  0  0  0
   -2.4683   -3.0069   35.8311 C   0  0  0  0  0  0  0  0  0  0  0  0
   -2.5651   -2.3019   37.0717 C   0  0  0  0  0  0  0  0  0  0  0  0
   -2.7436   -0.8922   37.1341 C   0  0  0  0  0  0  0  0  0  0  0  0
   -2.8221   -0.1646   35.9396 C   0  0  0  0  0  0  0  0  0  0  0  0
   -2.6797   -0.8049   34.7164 C   0  0  0  0  0  0  0  0  0  0  0  0
   -1.2003   -3.6257   33.2955 C   0  0  0  0  0  0  0  0  0  0  0  0
  2  3  1  0
  4 13  1  0
 13 14  3  0
  9 15  1  0
 15 16  1  0
 16 17  1  1
 17 18  1  0
 16 24  1  0
 29 30  1  0
 30 37  1  6
 30 31  1  0
 18 19  2  0
 19 20  1  0
 20 21  2  0
 21 22  1  0
 22 23  2  0
 23 18  1  0
 31 32  2  0
 32 33  1  0
 33 34  2  0
 34 35  1  0
 35 36  2  0
 36 31  1  0
  1  2  2  0
  2  7  1  0
  7  6  2  0
  6  5  1  0
  5  4  2  0
  4  1  1  0
 24 25  2  0
 25 26  1  0
 26 29  2  0
 29 28  1  0
 28 27  2  0
 27 24  1  0
  3  8  2  0
  8  9  1  0
  9 10  2  0
 10 12  1  0
 12 11  2  0
 11  3  1  0
M  END
$$$$
