No_6165-complexes_sdf/6BKW-FPZ/2024-09-17-14-21-01/
     RDKit          3D

 23 25  0  0  0  0  0  0  0  0999 V2000
   -7.7129    4.2099   27.0854 C   0  0  0  0  0  0  0  0  0  0  0  0
   -7.7814    5.1722   27.8972 C   0  0  0  0  0  0  0  0  0  0  0  0
   -7.3155    2.9699   27.6145 C   0  0  0  0  0  0  0  0  0  0  0  0
   -7.6814    1.8188   26.9581 C   0  0  0  0  0  0  0  0  0  0  0  0
   -8.6377    1.9131   25.9324 C   0  0  0  0  0  0  0  0  0  0  0  0
   -9.1866    3.0673   25.6037 C   0  0  0  0  0  0  0  0  0  0  0  0
   -8.8394    4.1752   26.2513 C   0  0  0  0  0  0  0  0  0  0  0  0
   -8.2486    6.4747   27.5719 N   0  0  0  0  0  0  0  0  0  0  0  0
   -9.0953    6.6391   26.5260 C   0  0  0  0  0  0  0  0  0  0  0  0
   -9.4505    5.4775   25.8556 C   0  0  0  0  0  0  0  0  0  0  0  0
   -7.0296    0.5294   27.2729 C   0  0  0  0  0  0  0  0  0  0  0  0
   -5.6210    0.4707   28.1621 Cl  0  0  0  0  0  0  0  0  0  0  0  0
   -7.5242   -0.7258   26.8788 C   0  0  0  0  0  0  0  0  0  0  0  0
   -7.3476   -1.7693   27.6412 C   0  0  0  0  0  0  0  0  0  0  0  0
   -6.3908   -1.8806   28.3901 C   0  0  0  0  0  0  0  0  0  0  0  0
   -6.1034   -3.1199   29.2452 C   0  0  0  0  0  0  0  0  0  0  0  0
   -5.0628   -2.9919   30.0953 C   0  0  0  0  0  0  0  0  0  0  0  0
   -4.2430   -1.8135   30.1985 C   0  0  0  0  0  0  0  0  0  0  0  0
   -4.5138   -0.7511   29.4570 C   0  0  0  0  0  0  0  0  0  0  0  0
   -5.1298   -0.4617   28.6254 C   0  0  0  0  0  0  0  0  0  0  0  0
   -4.2319   -1.0727   27.4230 C   0  0  0  0  0  0  0  0  0  0  0  0
   -3.1858   -0.1037   27.2242 C   0  0  0  0  0  0  0  0  0  0  0  0
   -2.5439    0.2946   28.2449 C   0  0  0  0  0  0  0  0  0  0  0  0
  4 11  1  0
 11 12  1  0
 11 13  1  0
 13 14  1  0
 14 15  1  0
 20 21  1  0
 21 22  1  0
 22 23  2  0
 15 16  2  0
 16 17  1  0
 17 18  2  0
 18 19  1  0
 19 20  2  0
 20 15  1  0
  1  2  2  0
  2  8  1  0
  8  9  2  0
  9 10  1  0
 10  7  2  0
  1  3  1  0
  3  4  2  0
  4  5  1  0
  5  6  2  0
  6  7  1  0
  7  1  1  0
M  END
$$$$
