No_6858-complexes_sdf/6BKW-FPZ/2024-09-17-14-21-01/
     RDKit          3D

 13 14  0  0  0  0  0  0  0  0999 V2000
   -7.9040    3.9820   27.1177 C   0  0  0  0  0  0  0  0  0  0  0  0
   -7.8663    4.8694   27.9238 C   0  0  0  0  0  0  0  0  0  0  0  0
   -7.4547    2.7080   27.4594 C   0  0  0  0  0  0  0  0  0  0  0  0
   -7.9337    1.5946   26.8372 C   0  0  0  0  0  0  0  0  0  0  0  0
   -8.9032    1.7881   25.8510 C   0  0  0  0  0  0  0  0  0  0  0  0
   -9.3787    2.9871   25.5530 C   0  0  0  0  0  0  0  0  0  0  0  0
   -8.9781    4.0300   26.2200 C   0  0  0  0  0  0  0  0  0  0  0  0
   -7.9493    6.0343   27.8952 N   0  0  0  0  0  0  0  0  0  0  0  0
   -8.1837    6.8027   26.8085 C   0  0  0  0  0  0  0  0  0  0  0  0
   -8.9788    6.4143   25.8015 N   0  0  0  0  0  0  0  0  0  0  0  0
   -9.1412    5.1497   25.4559 C   0  0  0  0  0  0  0  0  0  0  0  0
   -8.1165    8.1618   26.8674 N   0  0  0  0  0  0  0  0  0  0  0  0
   -7.3161    0.0377   27.2818 Cl  0  0  0  0  0  0  0  0  0  0  0  0
  1  2  1  0
  2  8  1  0
  8  9  2  0
  9 10  1  0
  7 11  1  0
 10 11  2  0
  9 12  1  0
  4 13  1  0
  1  3  2  0
  3  4  1  0
  4  5  2  0
  5  6  1  0
  6  7  2  0
  7  1  1  0
M  END
$$$$
