No_6449-complexes_sdf/6BKW-FPZ/2024-09-17-14-21-01/
     RDKit          3D

 19 20  0  0  0  0  0  0  0  0999 V2000
   -7.9040    3.9820   27.1177 C   0  0  0  0  0  0  0  0  0  0  0  0
   -8.2057    2.8231   26.8733 C   0  0  0  0  0  0  0  0  0  0  0  0
   -8.7695    5.0740   26.7916 C   0  0  0  0  0  0  0  0  0  0  0  0
   -9.9618    4.7598   26.1630 C   0  0  0  0  0  0  0  0  0  0  0  0
   -9.4200    2.4524   26.2850 C   0  0  0  0  0  0  0  0  0  0  0  0
  -10.2590    3.4815   25.9250 C   0  0  0  0  0  0  0  0  0  0  0  0
   -8.3837    6.4702   27.0872 C   0  0  0  0  0  0  0  0  0  0  0  0
   -7.9910    7.5367   27.0318 N   0  0  0  0  0  0  0  0  0  0  0  0
   -7.2744    1.6693   27.2989 C   0  0  0  0  0  0  0  0  0  0  0  0
   -6.1018    1.9780   27.8347 N   0  0  0  0  0  0  0  0  0  0  0  0
   -7.5341    0.3384   27.0624 C   0  0  0  0  0  0  0  0  0  0  0  0
   -5.1195    0.9893   28.0836 C   0  0  0  0  0  0  0  0  0  0  0  0
   -5.3710   -0.2771   27.9655 C   0  0  0  0  0  0  0  0  0  0  0  0
   -6.6217   -0.6181   27.4310 C   0  0  0  0  0  0  0  0  0  0  0  0
   -3.9464    1.5054   28.6229 N   0  0  0  0  0  0  0  0  0  0  0  0
  -11.5195    3.1830   25.1789 C   0  0  0  0  0  0  0  0  0  0  0  0
  -11.5682    2.1233   24.3804 C   0  0  0  0  0  0  0  0  0  0  0  0
  -11.4610    1.0807   24.5689 C   0  0  0  0  0  0  0  0  0  0  0  0
  -11.4984   -0.0789   23.5989 C   0  0  0  0  0  0  0  0  0  0  0  0
  3  7  1  0
  7  8  3  0
  2  9  1  0
 12 15  1  0
  6 16  1  0
 16 17  1  0
 17 18  2  3
 18 19  1  0
  9 10  2  0
 10 12  1  0
 12 13  2  0
 13 14  1  0
 14 11  2  0
 11  9  1  0
  1  2  2  0
  2  5  1  0
  5  6  2  0
  6  4  1  0
  4  3  2  0
  3  1  1  0
M  END
$$$$
