No_6553-complexes_sdf/6BKW-FPZ/2024-09-17-14-21-01/
     RDKit          3D

 18 19  0  0  0  0  0  0  0  0999 V2000
   -7.9040    3.9820   27.1177 C   0  0  0  0  0  0  0  0  0  0  0  0
   -7.8663    4.8694   27.9238 C   0  0  0  0  0  0  0  0  0  0  0  0
   -9.0953    3.1697   27.0532 C   0  0  0  0  0  0  0  0  0  0  0  0
  -10.1313    3.4052   27.8871 C   0  0  0  0  0  0  0  0  0  0  0  0
  -10.1178    4.5885   28.6885 C   0  0  0  0  0  0  0  0  0  0  0  0
   -8.9412    5.2994   28.7548 C   0  0  0  0  0  0  0  0  0  0  0  0
   -9.0691    1.9565   26.1695 C   0  0  0  0  0  0  0  0  0  0  0  0
   -8.4257    0.8037   26.4340 C   0  0  0  0  0  0  0  0  0  0  0  0
   -9.6932    2.1225   24.9256 C   0  0  0  0  0  0  0  0  0  0  0  0
  -10.3013    3.3823   24.5209 C   0  0  0  0  0  0  0  0  0  0  0  0
  -10.8876    3.5238   23.5441 C   0  0  0  0  0  0  0  0  0  0  0  0
  -10.8847    2.5727   22.4881 C   0  0  0  0  0  0  0  0  0  0  0  0
   -9.6255    1.1872   23.9674 C   0  0  0  0  0  0  0  0  0  0  0  0
  -10.1875    1.3815   22.7280 C   0  0  0  0  0  0  0  0  0  0  0  0
   -7.9015    0.6611   27.8187 C   0  0  0  0  0  0  0  0  0  0  0  0
   -7.2182   -0.5542   28.1355 C   0  0  0  0  0  0  0  0  0  0  0  0
   -7.0974   -1.5329   27.1349 C   0  0  0  0  0  0  0  0  0  0  0  0
   -8.2051   -0.2588   25.5863 C   0  0  0  0  0  0  0  0  0  0  0  0
  3  7  1  0
  7  8  2  3
  7  9  1  0
  8 15  1  0
 15 16  2  3
 16 17  1  0
  8 18  1  0
  1  2  2  0
  2  6  1  0
  6  5  2  0
  5  4  1  0
  4  3  2  0
  3  1  1  0
  9 10  2  0
 10 11  1  0
 11 12  2  0
 12 14  1  0
 14 13  2  0
 13  9  1  0
M  END
$$$$
