No_6045-complexes_sdf/6BKW-FPZ/2024-09-17-14-21-01/
     RDKit          3D

  8  8  0  0  0  0  0  0  0  0999 V2000
   -7.2496    3.8871   27.4508 C   0  0  0  0  0  0  0  0  0  0  0  0
   -8.5096    4.0291   27.2770 C   0  0  0  0  0  0  0  0  0  0  0  0
   -9.3451    2.8786   26.9046 C   0  0  0  0  0  0  0  0  0  0  0  0
  -10.6709    3.0505   26.6789 C   0  0  0  0  0  0  0  0  0  0  0  0
   -6.4656    5.0078   27.9610 C   0  0  0  0  0  0  0  0  0  0  0  0
   -7.3709    6.1463   28.1326 C   0  0  0  0  0  0  0  0  0  0  0  0
   -8.8730    5.3718   27.6536 C   0  0  0  0  0  0  0  0  0  0  0  0
  -11.4784    1.9122   26.3873 C   0  0  0  0  0  0  0  0  0  0  0  0
  1  2  1  0
  2  3  1  0
  3  4  2  3
  1  5  1  0
  5  6  2  0
  2  7  1  0
  6  7  1  0
  4  8  1  0
M  END
$$$$
