No_6357-complexes_sdf/6BKW-FPZ/2024-09-17-14-21-01/
     RDKit          3D

 10 10  0  0  0  0  0  0  0  0999 V2000
   -7.2496    3.8871   27.4508 C   0  0  0  0  0  0  0  0  0  0  0  0
   -8.5096    4.0291   27.2770 C   0  0  0  0  0  0  0  0  0  0  0  0
   -9.2677    5.1714   27.5773 C   0  0  1  0  0  0  0  0  0  0  0  0
   -9.3517    2.7730   27.3663 C   0  0  0  0  0  0  0  0  0  0  0  0
   -8.7152    1.6342   27.3100 C   0  0  0  0  0  0  0  0  0  0  0  0
   -6.5289    2.6644   27.4771 C   0  0  0  0  0  0  0  0  0  0  0  0
   -7.2583    1.5486   27.3728 C   0  0  0  0  0  0  0  0  0  0  0  0
   -8.3768    6.5986   27.6563 Cl  0  0  0  0  0  0  0  0  0  0  0  0
  -10.6749    5.2361   27.7095 C   0  0  0  0  0  0  0  0  0  0  0  0
  -11.4582    4.1497   27.8237 C   0  0  0  0  0  0  0  0  0  0  0  0
  2  3  1  0
  3  8  1  6
  3  9  1  0
  9 10  2  0
  1  2  2  0
  2  4  1  0
  4  5  2  0
  5  7  1  0
  7  6  2  0
  6  1  1  0
M  END
$$$$
