No_6963-complexes_sdf/6BKW-FPZ/2024-09-17-14-21-01/
     RDKit          3D

 40 45  0  0  0  0  0  0  0  0999 V2000
   -7.2496    3.8871   27.4508 C   0  0  0  0  0  0  0  0  0  0  0  0
   -7.6161    2.7143   27.1523 C   0  0  0  0  0  0  0  0  0  0  0  0
   -6.9719    1.5838   27.5324 C   0  0  0  0  0  0  0  0  0  0  0  0
   -7.4590    0.2827   27.2615 C   0  0  0  0  0  0  0  0  0  0  0  0
   -8.6787    2.5578   26.1663 C   0  0  0  0  0  0  0  0  0  0  0  0
   -9.1184    1.2615   25.8299 C   0  0  0  0  0  0  0  0  0  0  0  0
   -8.4774    0.1568   26.3866 C   0  0  0  0  0  0  0  0  0  0  0  0
   -8.0198    5.0684   27.1595 C   0  0  0  0  0  0  0  0  0  0  0  0
   -9.0968    4.9843   26.2298 C   0  0  0  0  0  0  0  0  0  0  0  0
   -9.4576    3.6949   25.7698 C   0  0  0  0  0  0  0  0  0  0  0  0
   -7.6259    6.4007   27.6993 C   0  0  0  0  0  0  0  0  0  0  0  0
   -8.3493    7.4647   27.2348 N   0  0  0  0  0  0  0  0  0  0  0  0
  -10.5152    3.6158   24.8218 C   0  0  0  0  0  0  0  0  0  0  0  0
  -10.3794    4.0560   23.5877 C   0  0  0  0  0  0  0  0  0  0  0  0
  -11.3825    4.0191   22.5876 C   0  0  0  0  0  0  0  0  0  0  0  0
  -12.5794    3.4010   22.9222 C   0  0  0  0  0  0  0  0  0  0  0  0
  -11.8065    3.0354   25.1852 C   0  0  0  0  0  0  0  0  0  0  0  0
  -12.8206    3.0344   24.2557 C   0  0  0  0  0  0  0  0  0  0  0  0
   -6.7577   -0.8762   27.8245 C   0  0  0  0  0  0  0  0  0  0  0  0
   -7.4323   -1.8383   28.4755 C   0  0  0  0  0  0  0  0  0  0  0  0
   -6.8118   -2.8160   29.2295 C   0  0  0  0  0  0  0  0  0  0  0  0
   -5.3611   -0.8839   27.9087 C   0  0  0  0  0  0  0  0  0  0  0  0
   -4.6686   -1.8329   28.6511 C   0  0  0  0  0  0  0  0  0  0  0  0
   -5.4054   -2.8265   29.2933 C   0  0  0  0  0  0  0  0  0  0  0  0
   -3.1972   -1.7716   28.7181 C   0  0  2  0  0  0  0  0  0  0  0  0
   -2.4164   -1.9223   27.7366 C   0  0  0  0  0  0  0  0  0  0  0  0
   -2.6822   -1.7571   26.6316 C   0  0  0  0  0  0  0  0  0  0  0  0
   -3.6119   -0.9451   26.1372 C   0  0  0  0  0  0  0  0  0  0  0  0
   -4.9879   -0.8711   26.5971 C   0  0  0  0  0  0  0  0  0  0  0  0
   -2.7770   -1.8284   30.2346 C   0  0  2  0  0  0  0  0  0  0  0  0
   -3.0294   -0.5724   30.9882 C   0  0  1  0  0  0  0  0  0  0  0  0
   -3.7054    0.5235   30.5231 C   0  0  0  0  0  0  0  0  0  0  0  0
   -3.2822   -0.8656   32.3096 C   0  0  0  0  0  0  0  0  0  0  0  0
   -1.9257   -2.7712   30.6046 C   0  0  0  0  0  0  0  0  0  0  0  0
   -2.1744   -3.1936   31.9401 C   0  0  2  0  0  0  0  0  0  0  0  0
   -1.4570   -4.2661   32.5663 C   0  0  0  0  0  0  0  0  0  0  0  0
   -3.2033   -2.8478   32.8412 C   0  0  0  0  0  0  0  0  0  0  0  0
   -3.6009   -0.3174   33.3707 O   0  0  0  0  0  0  0  0  0  0  0  0
   -2.9029   -1.8350   32.7895 O   0  0  0  0  0  0  0  0  0  0  0  0
   -0.7189   -4.2923   33.3591 O   0  0  0  0  0  0  0  0  0  0  0  0
  8 11  1  0
 11 12  1  0
 10 13  1  0
  4 19  1  0
 23 25  1  0
 25 26  1  6
 26 27  1  0
 27 28  2  0
 22 29  1  0
 28 29  1  0
 25 30  1  0
 30 31  1  0
 31 32  1  6
 31 33  1  0
 30 34  1  6
 34 35  1  0
 35 36  1  6
 35 37  1  0
 33 38  2  0
 33 39  1  0
 37 39  1  0
 36 40  2  0
 19 20  2  0
 20 21  1  0
 21 24  2  0
 24 23  1  0
 23 22  2  0
 22 19  1  0
 13 14  2  0
 14 15  1  0
 15 16  2  0
 16 18  1  0
 18 17  2  0
 17 13  1  0
  1  2  2  0
  5 10  2  0
 10  9  1  0
  9  8  2  0
  8  1  1  0
  2  3  1  0
  3  4  2  0
  4  7  1  0
  7  6  2  0
  6  5  1  0
  5  2  1  0
M  END
$$$$
