No_6230-complexes_sdf/6BKW-FPZ/2024-09-17-14-21-01/
     RDKit          3D

 20 21  0  0  0  0  0  0  0  0999 V2000
   -7.7129    4.2099   27.0854 C   0  0  0  0  0  0  0  0  0  0  0  0
   -8.9133    4.4736   27.0998 C   0  0  0  0  0  0  0  0  0  0  0  0
   -9.7135    3.9633   26.0300 C   0  0  0  0  0  0  0  0  0  0  0  0
   -7.1708    2.9509   26.6517 C   0  0  0  0  0  0  0  0  0  0  0  0
   -8.1338    2.1226   26.0347 C   0  0  0  0  0  0  0  0  0  0  0  0
   -9.3389    2.6863   25.6841 C   0  0  0  0  0  0  0  0  0  0  0  0
   -9.2342    5.8129   27.3429 F   0  0  0  0  0  0  0  0  0  0  0  0
   -7.7522    0.7690   25.6904 C   0  0  0  0  0  0  0  0  0  0  0  0
   -8.2536    0.0165   26.1506 O   0  0  0  0  0  0  0  0  0  0  0  0
   -6.5876    0.4773   25.3255 O   0  0  0  0  0  0  0  0  0  0  0  0
   -6.5520    4.9706   28.2784 Cl  0  0  0  0  0  0  0  0  0  0  0  0
  -10.2502    1.9713   24.7538 C   0  0  0  0  0  0  0  0  0  0  0  0
  -10.6009    2.6750   23.6081 C   0  0  0  0  0  0  0  0  0  0  0  0
  -11.4436    2.0695   22.6252 C   0  0  0  0  0  0  0  0  0  0  0  0
  -11.6349    0.7754   22.6738 C   0  0  0  0  0  0  0  0  0  0  0  0
  -11.1344    0.0062   23.7925 C   0  0  0  0  0  0  0  0  0  0  0  0
  -10.4569    0.6310   24.8058 C   0  0  0  0  0  0  0  0  0  0  0  0
  -11.3199   -1.4413   23.9106 C   0  0  0  0  0  0  0  0  0  0  0  0
  -10.7824   -2.1800   23.2995 C   0  0  0  0  0  0  0  0  0  0  0  0
  -10.9452   -3.6673   23.3637 C   0  0  0  0  0  0  0  0  0  0  0  0
  2  7  1  0
  5  8  1  0
  8  9  2  0
  8 10  1  0
  1 11  1  0
  6 12  1  0
 16 18  1  0
 18 19  2  3
 19 20  1  0
 12 13  2  0
 13 14  1  0
 14 15  2  0
 15 16  1  0
 16 17  2  0
 17 12  1  0
  1  2  2  0
  2  3  1  0
  3  6  2  0
  6  5  1  0
  5  4  2  0
  4  1  1  0
M  END
$$$$
