No_6748-complexes_sdf/6BKW-FPZ/2024-09-17-14-21-01/
     RDKit          3D

 12 13  0  0  0  0  0  0  0  0999 V2000
   -7.9040    3.9820   27.1177 C   0  0  0  0  0  0  0  0  0  0  0  0
   -9.0711    4.3164   27.0630 C   0  0  0  0  0  0  0  0  0  0  0  0
   -9.5294    5.4517   27.7215 C   0  0  0  0  0  0  0  0  0  0  0  0
   -9.9845    3.5634   26.2189 C   0  0  0  0  0  0  0  0  0  0  0  0
  -10.5758    2.5046   26.7628 C   0  0  0  0  0  0  0  0  0  0  0  0
  -11.3159    1.7641   26.2485 C   0  0  0  0  0  0  0  0  0  0  0  0
   -6.9382    4.6423   28.0502 C   0  0  0  0  0  0  0  0  0  0  0  0
   -8.6466    6.2715   28.4802 C   0  0  0  0  0  0  0  0  0  0  0  0
   -7.3524    5.7440   28.6215 C   0  0  0  0  0  0  0  0  0  0  0  0
  -10.2116    3.9283   24.8922 C   0  0  0  0  0  0  0  0  0  0  0  0
  -11.0660    3.1488   24.1525 C   0  0  0  0  0  0  0  0  0  0  0  0
  -11.6715    2.0395   24.8256 C   0  0  0  0  0  0  0  0  0  0  0  0
  2  4  1  0
  4  5  2  0
  5  6  1  0
  6 12  2  0
 12 11  1  0
 11 10  2  0
 10  4  1  0
  1  2  2  0
  2  3  1  0
  3  8  2  0
  8  9  1  0
  9  7  2  0
  7  1  1  0
M  END
$$$$
