No_6298-complexes_sdf/6BKW-FPZ/2024-09-17-14-21-01/
     RDKit          3D

 23 25  0  0  0  0  0  0  0  0999 V2000
   -7.2496    3.8871   27.4508 C   0  0  0  0  0  0  0  0  0  0  0  0
   -8.5096    4.0291   27.2770 C   0  0  0  0  0  0  0  0  0  0  0  0
   -9.2669    5.1645   27.5845 C   0  0  0  0  0  0  0  0  0  0  0  0
   -8.4566    6.3212   27.8001 C   0  0  0  0  0  0  0  0  0  0  0  0
   -6.6044    2.5801   27.2072 C   0  0  0  0  0  0  0  0  0  0  0  0
   -7.3819    1.4822   27.0097 C   0  0  0  0  0  0  0  0  0  0  0  0
   -6.7983    0.2818   26.8400 C   0  0  0  0  0  0  0  0  0  0  0  0
   -8.7587    1.7885   26.8619 C   0  0  0  0  0  0  0  0  0  0  0  0
   -9.3795    2.9137   27.0873 C   0  0  0  0  0  0  0  0  0  0  0  0
   -7.0058   -0.5107   26.0668 O   0  0  0  0  0  0  0  0  0  0  0  0
   -5.8901   -0.1013   27.8788 O   0  0  0  0  0  0  0  0  0  0  0  0
  -10.6329    5.2719   27.7674 C   0  0  0  0  0  0  0  0  0  0  0  0
   -4.6613    0.2735   27.9683 C   0  0  0  0  0  0  0  0  0  0  0  0
   -4.1879    0.3624   29.3295 C   0  0  0  0  0  0  0  0  0  0  0  0
   -3.8462    0.5537   26.9285 C   0  0  0  0  0  0  0  0  0  0  0  0
   -2.4210    0.8794   27.1444 C   0  0  0  0  0  0  0  0  0  0  0  0
   -2.7352    0.5333   29.5020 C   0  0  0  0  0  0  0  0  0  0  0  0
   -1.9300    0.7392   28.4219 C   0  0  0  0  0  0  0  0  0  0  0  0
  -11.5390    4.2094   27.7573 C   0  0  0  0  0  0  0  0  0  0  0  0
  -10.8430    2.9003   27.3512 C   0  0  0  0  0  0  0  0  0  0  0  0
  -11.6179    1.7098   27.3296 C   0  0  0  0  0  0  0  0  0  0  0  0
  -11.8066    1.0095   26.4212 C   0  0  0  0  0  0  0  0  0  0  0  0
  -12.5397   -0.2637   26.4648 C   0  0  0  0  0  0  0  0  0  0  0  0
  3  4  1  0
  6  7  1  0
  7 10  2  0
  7 11  1  0
 11 13  1  0
 20 21  1  0
 21 22  2  3
 22 23  1  0
  2  3  1  0
  3 12  2  0
 12 19  1  0
 19 20  2  0
 20  9  1  0
  1  2  2  0
  2  9  1  0
  9  8  2  0
  8  6  1  0
  6  5  2  0
  5  1  1  0
 13 14  2  0
 14 17  1  0
 17 18  2  0
 18 16  1  0
 16 15  2  0
 15 13  1  0
M  END
$$$$
