No_6241-complexes_sdf/6BKW-FPZ/2024-09-17-14-21-01/
     RDKit          3D

 17 17  0  0  0  0  0  0  0  0999 V2000
   -7.9040    3.9820   27.1177 C   0  0  0  0  0  0  0  0  0  0  0  0
   -9.0711    4.3164   27.0630 C   0  0  0  0  0  0  0  0  0  0  0  0
   -9.9692    3.7224   26.1073 C   0  0  0  0  0  0  0  0  0  0  0  0
   -6.9787    4.6761   28.1003 C   0  0  0  0  0  0  0  0  0  0  0  0
   -9.4538    2.6801   25.3673 C   0  0  0  0  0  0  0  0  0  0  0  0
   -8.1927    2.1957   25.6621 C   0  0  0  0  0  0  0  0  0  0  0  0
   -7.4333    2.8255   26.6299 C   0  0  0  0  0  0  0  0  0  0  0  0
  -10.2286    2.0431   24.4951 F   0  0  0  0  0  0  0  0  0  0  0  0
   -5.9019    4.2916   28.2873 O   0  0  0  0  0  0  0  0  0  0  0  0
   -7.4926    5.7596   28.7125 O   0  0  0  0  0  0  0  0  0  0  0  0
  -11.1721    4.2048   25.8310 F   0  0  0  0  0  0  0  0  0  0  0  0
   -7.7821    1.0642   25.0601 O   0  0  0  0  0  0  0  0  0  0  0  0
   -8.4478    0.3179   24.2552 C   0  0  0  0  0  0  0  0  0  0  0  0
   -7.9275   -0.6764   23.7947 C   0  0  0  0  0  0  0  0  0  0  0  0
   -8.4804   -1.5151   22.6973 C   0  0  0  0  0  0  0  0  0  0  0  0
   -9.7599   -1.0918   22.2238 C   0  0  0  0  0  0  0  0  0  0  0  0
  -10.3365    0.0269   22.7628 C   0  0  0  0  0  0  0  0  0  0  0  0
  1  4  1  0
  5  8  1  0
  4  9  2  0
  4 10  1  0
  3 11  1  0
  6 12  1  0
 12 13  1  0
 13 14  2  3
 14 15  1  0
 15 16  2  3
 16 17  1  0
  1  2  2  0
  2  3  1  0
  3  5  2  0
  5  6  1  0
  6  7  2  0
  7  1  1  0
M  END
$$$$
