No_6976-complexes_sdf/6BKW-FPZ/2024-09-17-14-21-01/
     RDKit          3D

 20 21  0  0  0  0  0  0  0  0999 V2000
   -7.7129    4.2099   27.0854 C   0  0  0  0  0  0  0  0  0  0  0  0
   -8.9133    4.4736   27.0998 C   0  0  0  0  0  0  0  0  0  0  0  0
   -9.8363    3.8127   27.2418 C   0  0  0  0  0  0  0  0  0  0  0  0
   -7.2995    2.8520   27.3808 C   0  0  0  0  0  0  0  0  0  0  0  0
   -8.3404    1.9507   27.4989 C   0  0  0  0  0  0  0  0  0  0  0  0
   -9.6166    2.3791   27.4719 C   0  0  0  0  0  0  0  0  0  0  0  0
   -9.1683    6.0342   26.9011 C   0  0  0  0  0  0  0  0  0  0  0  0
   -8.7928    6.7353   25.9035 N   0  0  0  0  0  0  0  0  0  0  0  0
   -8.0158    0.5139   27.7325 C   0  0  1  0  0  0  0  0  0  0  0  0
   -8.9934   -0.4097   27.7066 N   0  0  0  0  0  0  0  0  0  0  0  0
   -8.9661   -1.3096   27.0737 C   0  0  0  0  0  0  0  0  0  0  0  0
  -10.1800   -2.0265   26.9093 C   0  0  0  0  0  0  0  0  0  0  0  0
   -8.0714   -1.5142   26.0708 N   0  0  0  0  0  0  0  0  0  0  0  0
   -6.9363   -0.8408   25.9797 C   0  0  0  0  0  0  0  0  0  0  0  0
   -7.0150    0.2466   26.4392 C   0  0  0  0  0  0  0  0  0  0  0  0
   -9.7884    6.6742   27.8644 O   0  0  0  0  0  0  0  0  0  0  0  0
  -11.3126   -1.8801   27.5019 C   0  0  0  0  0  0  0  0  0  0  0  0
  -12.4717   -2.6728   27.4574 C   0  0  0  0  0  0  0  0  0  0  0  0
  -12.3571   -3.7689   26.6236 C   0  0  0  0  0  0  0  0  0  0  0  0
  -11.2315   -4.0317   25.9469 C   0  0  0  0  0  0  0  0  0  0  0  0
  2  7  1  0
  7  8  1  0
  9  5  1  6
  9 10  1  0
 10 11  1  0
 11 12  2  3
 11 13  1  0
 13 14  1  0
  9 15  1  0
 14 15  1  0
  7 16  2  0
 12 17  1  0
 17 18  2  3
 18 19  1  0
 19 20  2  0
  1  2  2  0
  2  3  1  0
  3  6  2  0
  6  5  1  0
  5  4  2  0
  4  1  1  0
M  END
$$$$
