No_6968-complexes_sdf/6BKW-FPZ/2024-09-17-14-21-01/
     RDKit          3D

 29 31  0  0  0  0  0  0  0  0999 V2000
   -7.7129    4.2099   27.0854 C   0  0  0  0  0  0  0  0  0  0  0  0
   -8.9133    4.4736   27.0998 C   0  0  0  0  0  0  0  0  0  0  0  0
   -9.4643    5.5426   27.7628 C   0  0  0  0  0  0  0  0  0  0  0  0
   -7.2009    2.9448   26.6134 C   0  0  0  0  0  0  0  0  0  0  0  0
   -8.1365    1.9533   26.2981 C   0  0  0  0  0  0  0  0  0  0  0  0
   -7.6295    0.6861   25.9574 C   0  0  0  0  0  0  0  0  0  0  0  0
   -9.7499    3.3946   26.7517 C   0  0  0  0  0  0  0  0  0  0  0  0
   -9.3701    2.2245   26.3076 C   0  0  0  0  0  0  0  0  0  0  0  0
   -7.5398    0.4720   24.7312 F   0  0  0  0  0  0  0  0  0  0  0  0
   -8.4208   -0.3157   26.5214 F   0  0  0  0  0  0  0  0  0  0  0  0
   -6.4114    0.3562   26.5242 F   0  0  0  0  0  0  0  0  0  0  0  0
  -11.2722    3.6667   26.7514 C   0  0  0  0  0  0  0  0  0  0  0  0
  -12.0952    2.7482   27.3887 C   0  0  0  0  0  0  0  0  0  0  0  0
  -13.4208    2.9392   27.5940 C   0  0  0  0  0  0  0  0  0  0  0  0
  -13.9305    4.1826   27.1416 C   0  0  0  0  0  0  0  0  0  0  0  0
  -13.0774    5.0965   26.4614 C   0  0  0  0  0  0  0  0  0  0  0  0
  -11.7362    4.8594   26.3576 C   0  0  0  0  0  0  0  0  0  0  0  0
  -15.6113    4.4049   27.4055 Cl  0  0  0  0  0  0  0  0  0  0  0  0
   -8.4419    6.7811   27.5801 C   0  0  0  0  0  0  0  0  0  0  0  0
   -7.7774    6.8919   26.3003 C   0  0  0  0  0  0  0  0  0  0  0  0
   -7.2235    8.2970   26.5484 C   0  0  0  0  0  0  0  0  0  0  0  0
  -11.5317    1.4541   27.9341 C   0  0  0  0  0  0  0  0  0  0  0  0
  -11.7758    0.2109   27.2031 C   0  0  0  0  0  0  0  0  0  0  0  0
  -12.0192    0.1425   26.0280 C   0  0  0  0  0  0  0  0  0  0  0  0
  -11.9010   -1.0326   25.2999 C   0  0  0  0  0  0  0  0  0  0  0  0
  -12.1099   -1.0535   23.8933 C   0  0  0  0  0  0  0  0  0  0  0  0
  -12.4710    0.1192   23.2710 C   0  0  0  0  0  0  0  0  0  0  0  0
  -12.5982    1.3090   23.9395 C   0  0  0  0  0  0  0  0  0  0  0  0
  -12.3624    1.3411   25.2659 C   0  0  0  0  0  0  0  0  0  0  0  0
  5  6  1  0
  6  9  1  0
  6 10  1  0
  6 11  1  0
  7 12  1  0
 15 18  1  0
  3 19  1  0
 19 20  1  0
 20 21  1  0
 13 22  1  0
 22 23  1  0
 23 24  1  0
  3  2  1  0
 12 13  1  0
 13 14  2  0
 14 15  1  0
 15 16  2  0
 16 17  1  0
 17 12  2  0
 24 25  2  0
 25 26  1  0
 26 27  2  0
 27 28  1  0
 28 29  2  0
 29 24  1  0
  1  2  2  0
  2  7  1  0
  7  8  2  0
  8  5  1  0
  5  4  2  0
  4  1  1  0
M  END
$$$$
