No_6773-complexes_sdf/6BKW-FPZ/2024-09-17-14-21-01/
     RDKit          3D

 23 25  0  0  0  0  0  0  0  0999 V2000
   -7.9040    3.9820   27.1177 C   0  0  0  0  0  0  0  0  0  0  0  0
   -8.2057    2.8231   26.8733 C   0  0  0  0  0  0  0  0  0  0  0  0
   -7.4766    1.7477   27.4593 C   0  0  0  0  0  0  0  0  0  0  0  0
   -8.7468    5.1251   26.6967 C   0  0  0  0  0  0  0  0  0  0  0  0
   -9.7234    4.8589   25.8202 C   0  0  0  0  0  0  0  0  0  0  0  0
   -9.9711    3.5858   25.4266 C   0  0  0  0  0  0  0  0  0  0  0  0
   -9.2266    2.4957   25.9600 C   0  0  0  0  0  0  0  0  0  0  0  0
   -7.8394    0.3721   27.3404 C   0  0  0  0  0  0  0  0  0  0  0  0
   -8.9869    0.1878   26.4476 C   0  0  0  0  0  0  0  0  0  0  0  0
   -9.6379    1.1710   25.7653 C   0  0  0  0  0  0  0  0  0  0  0  0
   -8.3912    6.5360   27.0721 C   0  0  0  0  0  0  0  0  0  0  0  0
   -8.0015    7.6163   27.1024 N   0  0  0  0  0  0  0  0  0  0  0  0
   -7.1524   -0.6701   27.9935 C   0  0  0  0  0  0  0  0  0  0  0  0
   -5.8592   -0.4850   28.4336 C   0  0  0  0  0  0  0  0  0  0  0  0
   -5.0195    0.5394   27.9552 C   0  0  0  0  0  0  0  0  0  0  0  0
   -3.6344    0.4876   28.4873 C   0  0  0  0  0  0  0  0  0  0  0  0
   -3.2746   -0.3529   29.4885 C   0  0  0  0  0  0  0  0  0  0  0  0
   -4.1448   -1.2760   29.9594 C   0  0  0  0  0  0  0  0  0  0  0  0
   -5.4132   -1.3595   29.4662 C   0  0  0  0  0  0  0  0  0  0  0  0
   -7.6615   -1.8240   27.8586 O   0  0  0  0  0  0  0  0  0  0  0  0
   -3.6304   -2.2778   31.2720 Cl  0  0  0  0  0  0  0  0  0  0  0  0
  -11.2326    3.3423   24.2879 Cl  0  0  0  0  0  0  0  0  0  0  0  0
   -6.9347    4.4209   28.0183 O   0  0  0  0  0  0  0  0  0  0  0  0
  4 11  1  0
 11 12  3  0
  8 13  1  0
 13 14  1  0
 13 20  2  0
 18 21  1  0
  6 22  1  0
  1 23  1  0
 14 15  2  0
 15 16  1  0
 16 17  2  0
 17 18  1  0
 18 19  2  0
 19 14  1  0
  1  2  2  0
  7  6  2  0
  6  5  1  0
  5  4  2  0
  4  1  1  0
  2  3  1  0
  3  8  2  0
  8  9  1  0
  9 10  2  0
 10  7  1  0
  7  2  1  0
M  END
$$$$
