No_6198-complexes_sdf/6BKW-FPZ/2024-09-17-14-21-01/
     RDKit          3D

 11 11  0  0  0  0  0  0  0  0999 V2000
   -7.9040    3.9820   27.1177 C   0  0  0  0  0  0  0  0  0  0  0  0
   -7.8663    4.8694   27.9238 C   0  0  0  0  0  0  0  0  0  0  0  0
   -9.0491    3.8523   26.2542 C   0  0  0  0  0  0  0  0  0  0  0  0
   -9.9827    3.2456   26.6451 C   0  0  0  0  0  0  0  0  0  0  0  0
   -9.0973    5.3111   28.4054 N   0  0  0  0  0  0  0  0  0  0  0  0
  -10.3900    4.8611   28.1384 C   0  0  0  0  0  0  0  0  0  0  0  0
  -10.8298    4.0811   27.2841 C   0  0  2  0  0  0  0  0  0  0  0  0
   -6.9039    5.3725   28.5376 O   0  0  0  0  0  0  0  0  0  0  0  0
  -12.2893    3.6593   27.4171 C   0  0  0  0  0  0  0  0  0  0  0  0
  -12.8798    3.2332   26.6486 C   0  0  0  0  0  0  0  0  0  0  0  0
  -14.3433    2.9192   26.7091 C   0  0  0  0  0  0  0  0  0  0  0  0
  1  2  1  0
  1  3  1  0
  3  4  2  0
  2  5  1  0
  5  6  1  0
  4  7  1  0
  7  6  1  1
  2  8  2  0
  7  9  1  0
  9 10  2  3
 10 11  1  0
M  END
$$$$
