No_693-complexes_sdf/6BKW-FPZ/2024-09-17-14-21-01/
     RDKit          3D

 20 22  0  0  0  0  0  0  0  0999 V2000
   -7.9040    3.9820   27.1177 C   0  0  0  0  0  0  0  0  0  0  0  0
   -9.0711    4.3164   27.0630 C   0  0  0  0  0  0  0  0  0  0  0  0
   -9.9692    3.7224   26.1073 C   0  0  0  0  0  0  0  0  0  0  0  0
   -7.4776    2.6994   26.6283 C   0  0  0  0  0  0  0  0  0  0  0  0
   -8.4406    1.9440   25.9776 C   0  0  0  0  0  0  0  0  0  0  0  0
   -9.6379    2.5001   25.6881 C   0  0  0  0  0  0  0  0  0  0  0  0
   -6.7701    4.7886   28.1891 Cl  0  0  0  0  0  0  0  0  0  0  0  0
  -10.5973    1.7372   24.8197 C   0  0  0  0  0  0  0  0  0  0  0  0
  -10.8736    2.1481   23.6065 C   0  0  0  0  0  0  0  0  0  0  0  0
  -10.2728    3.4493   23.1543 C   0  0  0  0  0  0  0  0  0  0  0  0
  -10.5526    3.9502   21.8477 C   0  0  0  0  0  0  0  0  0  0  0  0
  -11.1611    3.0884   20.9395 C   0  0  0  0  0  0  0  0  0  0  0  0
  -11.6641    1.8184   21.3308 C   0  0  0  0  0  0  0  0  0  0  0  0
  -11.4553    1.4031   22.6089 C   0  0  0  0  0  0  0  0  0  0  0  0
  -11.8073    1.4357   25.6138 C   0  0  0  0  0  0  0  0  0  0  0  0
  -11.9050    0.1204   25.9641 C   0  0  0  0  0  0  0  0  0  0  0  0
  -12.9814   -0.1537   26.8228 C   0  0  0  0  0  0  0  0  0  0  0  0
  -13.8772    0.8361   27.2517 C   0  0  0  0  0  0  0  0  0  0  0  0
  -13.7056    2.1081   26.8642 C   0  0  0  0  0  0  0  0  0  0  0  0
  -12.6251    2.4611   26.0981 C   0  0  0  0  0  0  0  0  0  0  0  0
  1  7  1  0
  6  8  1  0
  8 15  1  0
  8  9  1  0
 15 16  2  0
 16 17  1  0
 17 18  2  0
 18 19  1  0
 19 20  2  0
 20 15  1  0
  1  2  2  0
  2  3  1  0
  3  6  2  0
  6  5  1  0
  5  4  2  0
  4  1  1  0
  9 10  2  0
 10 11  1  0
 11 12  2  0
 12 13  1  0
 13 14  2  0
 14  9  1  0
M  END
$$$$
