No_6614-complexes_sdf/6BKW-FPZ/2024-09-17-14-21-01/
     RDKit          3D

  9  8  0  0  0  0  0  0  0  0999 V2000
   -7.7129    4.2099   27.0854 C   0  0  0  0  0  0  0  0  0  0  0  0
   -7.7814    5.1722   27.8972 C   0  0  0  0  0  0  0  0  0  0  0  0
   -8.7889    3.2468   27.2220 C   0  0  0  0  0  0  0  0  0  0  0  0
   -9.8927    3.4443   27.8449 C   0  0  0  0  0  0  0  0  0  0  0  0
  -10.8580    4.0567   27.3000 C   0  0  0  0  0  0  0  0  0  0  0  0
  -11.9118    3.2220   26.8560 C   0  0  0  0  0  0  0  0  0  0  0  0
  -13.0778    3.7349   26.6624 C   0  0  0  0  0  0  0  0  0  0  0  0
   -8.6522    1.9163   26.5668 C   0  0  0  0  0  0  0  0  0  0  0  0
   -9.2424    1.7444   25.3623 C   0  0  0  0  0  0  0  0  0  0  0  0
  1  2  1  0
  1  3  1  0
  3  4  1  0
  4  5  1  0
  5  6  1  0
  6  7  1  0
  3  8  1  0
  8  9  2  0
M  END
$$$$
