No_6655-complexes_sdf/6BKW-FPZ/2024-09-17-14-21-01/
     RDKit          3D

 13 14  0  0  0  0  0  0  0  0999 V2000
   -7.2496    3.8871   27.4508 C   0  0  0  0  0  0  0  0  0  0  0  0
   -8.5096    4.0291   27.2770 C   0  0  0  0  0  0  0  0  0  0  0  0
   -9.3502    2.8685   26.8763 C   0  0  0  0  0  0  0  0  0  0  0  0
   -6.4573    5.0085   27.9854 C   0  0  0  0  0  0  0  0  0  0  0  0
   -9.1243    5.2674   27.5163 C   0  0  0  0  0  0  0  0  0  0  0  0
   -8.4032    6.3854   27.8703 C   0  0  0  0  0  0  0  0  0  0  0  0
   -7.0896    6.2292   28.0937 C   0  0  0  0  0  0  0  0  0  0  0  0
   -8.7457    1.6476   26.7403 C   0  0  0  0  0  0  0  0  0  0  0  0
   -9.5064    0.4955   26.4066 C   0  0  0  0  0  0  0  0  0  0  0  0
  -10.8746    0.6734   26.2014 C   0  0  0  0  0  0  0  0  0  0  0  0
  -10.7301    2.8520   26.5993 C   0  0  0  0  0  0  0  0  0  0  0  0
  -11.4656    1.8225   26.3835 C   0  0  0  0  0  0  0  0  0  0  0  0
   -8.6896   -1.0090   26.2191 Cl  0  0  0  0  0  0  0  0  0  0  0  0
  2  3  1  0
  9 13  1  0
  3  8  2  0
  8  9  1  0
  9 10  2  0
 10 12  1  0
 12 11  2  0
 11  3  1  0
  1  2  2  0
  2  5  1  0
  5  6  2  0
  6  7  1  0
  7  4  2  0
  4  1  1  0
M  END
$$$$
