No_6445-complexes_sdf/6BKW-FPZ/2024-09-17-14-21-01/
     RDKit          3D

 40 45  0  0  0  0  0  0  0  0999 V2000
   -7.9040    3.9820   27.1177 C   0  0  0  0  0  0  0  0  0  0  0  0
   -9.0711    4.3164   27.0630 C   0  0  0  0  0  0  0  0  0  0  0  0
   -9.5294    5.4517   27.7215 C   0  0  0  0  0  0  0  0  0  0  0  0
   -6.9328    4.7309   27.8881 C   0  0  0  0  0  0  0  0  0  0  0  0
   -7.3377    5.8421   28.5537 C   0  0  0  0  0  0  0  0  0  0  0  0
   -8.6411    6.2609   28.3972 C   0  0  0  0  0  0  0  0  0  0  0  0
  -10.0467    3.4917   26.2630 C   0  0  0  0  0  0  0  0  0  0  0  0
  -10.5865    3.7278   25.3547 C   0  0  0  0  0  0  0  0  0  0  0  0
  -11.4289    2.9431   24.4579 C   0  0  0  0  0  0  0  0  0  0  0  0
  -11.4990    1.6326   24.7978 C   0  0  0  0  0  0  0  0  0  0  0  0
  -10.0990    1.9965   26.5245 C   0  0  0  0  0  0  0  0  0  0  0  0
  -10.7956    1.1502   25.8674 C   0  0  0  0  0  0  0  0  0  0  0  0
  -10.8641   -0.2923   26.2156 C   0  0  0  0  0  0  0  0  0  0  0  0
  -11.6142   -0.8109   26.7352 C   0  0  0  0  0  0  0  0  0  0  0  0
  -11.8736   -1.6503   27.4354 C   0  0  0  0  0  0  0  0  0  0  0  0
  -10.7418   -2.6054   27.6295 C   0  0  0  0  0  0  0  0  0  0  0  0
   -9.5671   -2.2240   27.0681 C   0  0  0  0  0  0  0  0  0  0  0  0
   -9.5175   -0.9419   26.5168 C   0  0  0  0  0  0  0  0  0  0  0  0
   -8.3078   -2.9306   27.3102 C   0  0  0  0  0  0  0  0  0  0  0  0
   -7.4833   -2.9127   26.4585 C   0  0  0  0  0  0  0  0  0  0  0  0
   -6.1220   -3.4974   26.6481 C   0  0  0  0  0  0  0  0  0  0  0  0
   -5.8524   -4.1202   27.8117 C   0  0  0  0  0  0  0  0  0  0  0  0
   -8.0510   -3.4705   28.6420 C   0  0  0  0  0  0  0  0  0  0  0  0
   -6.8331   -4.0867   28.8834 C   0  0  0  0  0  0  0  0  0  0  0  0
   -5.6815    4.2152   28.0422 O   0  0  0  0  0  0  0  0  0  0  0  0
  -12.1126    3.5246   23.2921 C   0  0  2  0  0  0  0  0  0  0  0  0
  -11.3611    4.1770   22.3945 C   0  0  0  0  0  0  0  0  0  0  0  0
  -11.4889    3.9777   21.0640 C   0  0  0  0  0  0  0  0  0  0  0  0
  -10.4700    4.4761   20.1348 C   0  0  0  0  0  0  0  0  0  0  0  0
  -12.6329    3.3631   20.5050 C   0  0  0  0  0  0  0  0  0  0  0  0
  -12.7272    3.1288   19.1388 C   0  0  0  0  0  0  0  0  0  0  0  0
  -10.5641    4.2110   18.7699 C   0  0  0  0  0  0  0  0  0  0  0  0
  -11.7001    3.5577   18.2731 C   0  0  0  0  0  0  0  0  0  0  0  0
  -13.3043    4.4223   23.8033 C   0  0  0  0  0  0  0  0  0  0  0  0
  -14.6107    4.0432   23.5451 C   0  0  0  0  0  0  0  0  0  0  0  0
  -15.6147    4.8642   24.0068 C   0  0  0  0  0  0  0  0  0  0  0  0
  -15.3578    5.9027   24.9244 C   0  0  0  0  0  0  0  0  0  0  0  0
  -14.0072    6.1048   25.3526 C   0  0  0  0  0  0  0  0  0  0  0  0
  -13.0180    5.3369   24.8571 C   0  0  0  0  0  0  0  0  0  0  0  0
  -16.4302    6.7623   25.4948 C   0  0  0  0  0  0  0  0  0  0  0  0
  2  7  1  0
 12 13  1  0
 17 19  1  0
  4 25  1  0
  9 26  1  0
 26 27  1  1
 26 34  1  0
 37 40  1  0
 27 28  1  0
  1  2  2  0
  2  3  1  0
  3  6  2  0
  6  5  1  0
  5  4  2  0
  4  1  1  0
 19 20  2  0
 20 21  1  0
 21 22  2  0
 22 24  1  0
 24 23  2  0
 23 19  1  0
 28 29  2  0
 29 32  1  0
 32 33  2  0
 33 31  1  0
 31 30  2  0
 30 28  1  0
 34 35  2  0
 35 36  1  0
 36 37  2  0
 37 38  1  0
 38 39  2  0
 39 34  1  0
  7  8  2  0
  8  9  1  0
  9 10  2  0
 10 12  1  0
 12 11  2  0
 11  7  1  0
 13 14  2  0
 14 15  1  0
 15 16  2  0
 16 17  1  0
 17 18  2  0
 18 13  1  0
M  END
$$$$
