No_6519-complexes_sdf/6BKW-FPZ/2024-09-17-14-21-01/
     RDKit          3D

 19 20  0  0  0  0  0  0  0  0999 V2000
   -7.9040    3.9820   27.1177 C   0  0  0  0  0  0  0  0  0  0  0  0
   -8.2057    2.8231   26.8733 C   0  0  0  0  0  0  0  0  0  0  0  0
   -9.2962    2.4021   26.1155 C   0  0  0  0  0  0  0  0  0  0  0  0
   -8.7358    5.0662   26.5917 C   0  0  0  0  0  0  0  0  0  0  0  0
   -9.7618    4.7023   25.7546 C   0  0  0  0  0  0  0  0  0  0  0  0
  -10.0066    3.4105   25.4922 C   0  0  0  0  0  0  0  0  0  0  0  0
   -8.3943    6.4761   26.8801 C   0  0  0  0  0  0  0  0  0  0  0  0
   -8.0574    7.5061   27.0291 N   0  0  0  0  0  0  0  0  0  0  0  0
   -7.4123    1.7689   27.4786 O   0  0  0  0  0  0  0  0  0  0  0  0
   -6.0546    1.8537   27.3668 C   0  0  0  0  0  0  0  0  0  0  0  0
   -5.3843    0.9258   28.3659 C   0  0  0  0  0  0  0  0  0  0  0  0
   -3.9729    1.0215   28.3246 C   0  0  0  0  0  0  0  0  0  0  0  0
   -3.3592    0.0472   29.1185 C   0  0  0  0  0  0  0  0  0  0  0  0
   -4.0037   -0.7943   30.0302 C   0  0  0  0  0  0  0  0  0  0  0  0
   -5.3900   -0.8262   29.9324 C   0  0  0  0  0  0  0  0  0  0  0  0
   -5.9991   -0.0149   29.0834 C   0  0  0  0  0  0  0  0  0  0  0  0
   -3.2272   -1.6732   30.9299 C   0  0  0  0  0  0  0  0  0  0  0  0
   -3.8150   -2.3535   31.4028 O   0  0  0  0  0  0  0  0  0  0  0  0
   -1.8929   -1.5822   30.7998 O   0  0  0  0  0  0  0  0  0  0  0  0
  4  7  1  0
  7  8  3  0
  2  9  1  0
  9 10  1  0
 10 11  1  0
 14 17  1  0
 17 18  2  0
 17 19  1  0
 11 12  2  0
 12 13  1  0
 13 14  2  0
 14 15  1  0
 15 16  2  0
 16 11  1  0
  1  2  2  0
  2  3  1  0
  3  6  2  0
  6  5  1  0
  5  4  2  0
  4  1  1  0
M  END
$$$$
