No_6874-complexes_sdf/6BKW-FPZ/2024-09-17-14-21-01/
     RDKit          3D

 13 13  0  0  0  0  0  0  0  0999 V2000
   -7.2496    3.8871   27.4508 C   0  0  0  0  0  0  0  0  0  0  0  0
   -8.5096    4.0291   27.2770 C   0  0  0  0  0  0  0  0  0  0  0  0
   -9.3451    2.8786   26.9046 C   0  0  0  0  0  0  0  0  0  0  0  0
   -6.6065    2.5680   27.5073 C   0  0  0  0  0  0  0  0  0  0  0  0
   -7.4233    1.4858   27.2402 C   0  0  0  0  0  0  0  0  0  0  0  0
   -8.7362    1.6525   26.9989 C   0  0  0  0  0  0  0  0  0  0  0  0
   -9.0996    5.3741   27.2135 C   0  0  0  0  0  0  0  0  0  0  0  0
   -8.6386    6.1889   26.5170 F   0  0  0  0  0  0  0  0  0  0  0  0
   -9.1503    5.9086   28.5759 F   0  0  0  0  0  0  0  0  0  0  0  0
  -10.5042    5.2681   26.9956 F   0  0  0  0  0  0  0  0  0  0  0  0
   -6.7601    0.2061   27.2415 C   0  0  0  0  0  0  0  0  0  0  0  0
   -7.3595   -0.9022   27.1900 C   0  0  0  0  0  0  0  0  0  0  0  0
   -6.7146   -2.1662   27.2279 C   0  0  0  0  0  0  0  0  0  0  0  0
  2  7  1  0
  7  8  1  0
  7  9  1  0
  7 10  1  0
  5 11  1  0
 11 12  2  3
 12 13  1  0
  1  2  2  0
  2  3  1  0
  3  6  2  0
  6  5  1  0
  5  4  2  0
  4  1  1  0
M  END
$$$$
