No_6107-complexes_sdf/6BKW-FPZ/2024-09-17-14-21-01/
     RDKit          3D

 23 26  0  0  0  0  0  0  0  0999 V2000
   -7.7129    4.2099   27.0854 C   0  0  0  0  0  0  0  0  0  0  0  0
   -7.7814    5.1722   27.8972 C   0  0  0  0  0  0  0  0  0  0  0  0
   -7.3155    2.9700   27.6145 C   0  0  0  0  0  0  0  0  0  0  0  0
   -7.6814    1.8188   26.9581 C   0  0  0  0  0  0  0  0  0  0  0  0
   -7.2010    0.5770   27.3247 C   0  0  0  0  0  0  0  0  0  0  0  0
   -5.9696    0.6081   28.0083 C   0  0  0  0  0  0  0  0  0  0  0  0
   -5.3021    1.7942   28.3184 C   0  0  0  0  0  0  0  0  0  0  0  0
   -5.9222    2.9618   28.0230 C   0  0  0  0  0  0  0  0  0  0  0  0
   -8.4168    6.5271   27.5690 C   0  0  0  0  0  0  0  0  0  0  0  0
   -8.6547    4.3291   26.0224 C   0  0  0  0  0  0  0  0  0  0  0  0
   -9.4024    5.5041   25.7254 C   0  0  0  0  0  0  0  0  0  0  0  0
   -9.1994    6.5968   26.4902 C   0  0  0  0  0  0  0  0  0  0  0  0
   -5.3087   -0.7150   28.3158 C   0  0  0  0  0  0  0  0  0  0  0  0
   -5.9963   -1.6866   28.6797 C   0  0  0  0  0  0  0  0  0  0  0  0
   -5.4208   -2.9512   29.0789 C   0  0  0  0  0  0  0  0  0  0  0  0
   -4.0283   -3.0084   29.1201 C   0  0  0  0  0  0  0  0  0  0  0  0
   -3.8597   -0.7516   28.4757 C   0  0  0  0  0  0  0  0  0  0  0  0
   -3.2401   -1.8845   28.8234 C   0  0  0  0  0  0  0  0  0  0  0  0
   -9.0304    2.9473   25.0261 Cl  0  0  0  0  0  0  0  0  0  0  0  0
   -6.2523   -4.0982   29.3999 C   0  0  0  0  0  0  0  0  0  0  0  0
   -7.4505   -4.0944   29.0489 C   0  0  0  0  0  0  0  0  0  0  0  0
   -8.1045   -2.8370   28.6414 C   0  0  0  0  0  0  0  0  0  0  0  0
   -7.4257   -1.7609   28.4916 C   0  0  0  0  0  0  0  0  0  0  0  0
  6 13  1  0
 10 19  1  0
  3  1  1  0
 13 14  2  0
 15 16  2  0
 16 18  1  0
 18 17  2  0
 17 13  1  0
 14 15  1  0
 15 20  1  0
 20 21  2  0
 21 22  1  0
 22 23  2  0
 23 14  1  0
  3  4  2  0
  4  5  1  0
  5  6  2  0
  6  7  1  0
  7  8  2  0
  8  3  1  0
  1  2  2  0
  2  9  1  0
  9 12  2  0
 12 11  1  0
 11 10  2  0
 10  1  1  0
M  END
$$$$
