No_6173-complexes_sdf/6BKW-FPZ/2024-09-17-14-21-01/
     RDKit          3D

 33 36  0  0  0  0  0  0  0  0999 V2000
   -7.7129    4.2099   27.0854 C   0  0  0  0  0  0  0  0  0  0  0  0
   -8.2112    3.0637   26.9225 C   0  0  0  0  0  0  0  0  0  0  0  0
   -7.5138    1.9223   27.4249 C   0  0  0  0  0  0  0  0  0  0  0  0
   -8.5309    5.4147   26.8151 C   0  0  0  0  0  0  0  0  0  0  0  0
   -9.6817    5.2393   26.1100 C   0  0  0  0  0  0  0  0  0  0  0  0
  -10.1032    3.9957   25.8534 C   0  0  0  0  0  0  0  0  0  0  0  0
   -9.4035    2.8430   26.2573 C   0  0  0  0  0  0  0  0  0  0  0  0
   -6.1481    1.9922   27.8210 C   0  0  0  0  0  0  0  0  0  0  0  0
   -5.4897    0.8126   28.2236 C   0  0  0  0  0  0  0  0  0  0  0  0
   -6.0879   -0.4018   28.1493 C   0  0  0  0  0  0  0  0  0  0  0  0
   -7.9650    0.5820   27.3461 C   0  0  0  0  0  0  0  0  0  0  0  0
   -7.3675   -0.4821   27.7671 C   0  0  0  0  0  0  0  0  0  0  0  0
   -7.9823    6.7626   27.0888 C   0  0  0  0  0  0  0  0  0  0  0  0
   -8.6315    7.8159   26.7552 O   0  0  0  0  0  0  0  0  0  0  0  0
   -6.8472    6.8329   27.7776 O   0  0  0  0  0  0  0  0  0  0  0  0
   -3.8059    1.0424   28.7669 Cl  0  0  0  0  0  0  0  0  0  0  0  0
  -11.2484    3.8551   25.1620 F   0  0  0  0  0  0  0  0  0  0  0  0
   -8.0043   -1.7897   27.7712 C   0  0  0  0  0  0  0  0  0  0  0  0
   -8.9396   -2.1918   28.2177 C   0  0  0  0  0  0  0  0  0  0  0  0
   -9.8394   -1.1911   28.9934 C   0  0  0  0  0  0  0  0  0  0  0  0
  -11.1499   -1.5705   29.5102 C   0  0  0  0  0  0  0  0  0  0  0  0
  -11.4274   -2.9049   29.4374 C   0  0  0  0  0  0  0  0  0  0  0  0
  -10.6953   -3.8608   28.8278 C   0  0  0  0  0  0  0  0  0  0  0  0
   -9.5293   -3.4927   28.2908 C   0  0  0  0  0  0  0  0  0  0  0  0
   -7.2284   -2.6548   27.0742 F   0  0  0  0  0  0  0  0  0  0  0  0
  -12.6899   -3.2679   30.0077 O   0  0  0  0  0  0  0  0  0  0  0  0
  -12.8227   -3.2699   31.2760 C   0  0  0  0  0  0  0  0  0  0  0  0
  -13.5877   -2.4689   31.7187 C   0  0  0  0  0  0  0  0  0  0  0  0
  -14.4994   -1.6384   31.0708 C   0  0  0  0  0  0  0  0  0  0  0  0
  -14.8506   -0.7081   31.2020 C   0  0  0  0  0  0  0  0  0  0  0  0
  -14.7557   -0.0393   32.6239 C   0  0  0  0  0  0  0  0  0  0  0  0
  -13.9745   -0.7760   33.5366 C   0  0  0  0  0  0  0  0  0  0  0  0
  -13.2988   -1.8402   33.1192 C   0  0  0  0  0  0  0  0  0  0  0  0
  2  3  1  0
  4 13  1  0
 13 14  2  0
 13 15  1  0
  9 16  1  0
  6 17  1  0
 12 18  1  0
 18 25  1  0
 22 26  1  0
 26 27  1  0
 27 28  1  0
 18 19  1  0
 28 29  2  0
 29 30  1  0
 30 31  2  0
 31 32  1  0
 32 33  2  0
 33 28  1  0
  3  8  2  0
  8  9  1  0
  9 10  2  0
 10 12  1  0
 12 11  2  0
 11  3  1  0
  1  2  2  0
  2  7  1  0
  7  6  2  0
  6  5  1  0
  5  4  2  0
  4  1  1  0
 19 20  2  0
 20 21  1  0
 21 22  2  0
 22 23  1  0
 23 24  2  0
 24 19  1  0
M  END
$$$$
