No_6163-complexes_sdf/6BKW-FPZ/2024-09-17-14-21-01/
     RDKit          3D

 20 21  0  0  0  0  0  0  0  0999 V2000
   -7.9040    3.9820   27.1177 C   0  0  0  0  0  0  0  0  0  0  0  0
   -8.2057    2.8231   26.8733 C   0  0  0  0  0  0  0  0  0  0  0  0
   -7.0130    4.3706   28.1140 C   0  0  0  0  0  0  0  0  0  0  0  0
   -9.3829    2.4374   26.1668 C   0  0  0  0  0  0  0  0  0  0  0  0
  -10.0151    3.2164   25.8460 C   0  0  0  0  0  0  0  0  0  0  0  0
   -9.8517    4.6499   25.9574 C   0  0  0  0  0  0  0  0  0  0  0  0
   -8.7642    5.0121   26.6984 C   0  0  0  0  0  0  0  0  0  0  0  0
   -8.5221    6.4142   26.9959 C   0  0  0  0  0  0  0  0  0  0  0  0
   -6.7969    5.7347   28.4918 C   0  0  0  0  0  0  0  0  0  0  0  0
   -7.5952    6.7975   27.7679 N   0  0  0  0  0  0  0  0  0  0  0  0
   -7.0919    1.4460   27.5289 P   0  0  1  0  0  0  0  0  0  0  0  0
   -6.2868    0.9788   26.3593 O   0  0  0  0  0  0  0  0  0  0  0  0
   -6.2691    2.1245   28.4943 O   0  0  0  0  0  0  0  0  0  0  0  0
   -7.9936    0.3880   27.9300 O   0  0  0  0  0  0  0  0  0  0  0  0
   -7.5957   -0.8524   27.9301 C   0  0  0  0  0  0  0  0  0  0  0  0
   -6.5913   -1.3030   28.1264 C   0  0  0  0  0  0  0  0  0  0  0  0
   -6.0171   -2.0061   28.7476 C   0  0  0  0  0  0  0  0  0  0  0  0
   -4.5714   -2.4006   28.9136 C   0  0  0  0  0  0  0  0  0  0  0  0
   -3.7118   -1.6680   28.0285 C   0  0  0  0  0  0  0  0  0  0  0  0
   -4.2598   -0.7430   27.1583 C   0  0  0  0  0  0  0  0  0  0  0  0
  2 11  1  0
 11 12  2  0
 11 13  1  1
 11 14  1  0
 14 15  1  0
 15 16  2  3
 16 17  1  0
 17 18  2  3
 18 19  1  0
 19 20  2  0
  1  3  1  0
  3  9  2  0
  9 10  1  0
 10  8  2  0
  8  7  1  0
  1  2  2  0
  2  4  1  0
  4  5  2  0
  5  6  1  0
  6  7  2  0
  7  1  1  0
M  END
$$$$
