No_6110-complexes_sdf/6BKW-FPZ/2024-09-17-14-21-01/
     RDKit          3D

 19 20  0  0  0  0  0  0  0  0999 V2000
   -7.9040    3.9820   27.1177 C   0  0  0  0  0  0  0  0  0  0  0  0
   -9.0711    4.3164   27.0630 C   0  0  0  0  0  0  0  0  0  0  0  0
   -9.5182    5.5541   27.5777 C   0  0  0  0  0  0  0  0  0  0  0  0
   -7.4468    2.6843   26.6499 C   0  0  0  0  0  0  0  0  0  0  0  0
   -8.3856    1.7878   26.2216 C   0  0  0  0  0  0  0  0  0  0  0  0
   -9.6812    2.2328   26.0889 C   0  0  0  0  0  0  0  0  0  0  0  0
  -10.0147    3.4312   26.5259 C   0  0  0  0  0  0  0  0  0  0  0  0
   -7.7098    0.5124   25.8113 C   0  0  0  0  0  0  0  0  0  0  0  0
   -6.7956   -0.1283   26.6695 C   0  0  0  0  0  0  0  0  0  0  0  0
   -6.8878   -1.3282   27.0182 C   0  0  0  0  0  0  0  0  0  0  0  0
   -8.0519   -2.0506   26.6855 C   0  0  0  0  0  0  0  0  0  0  0  0
   -8.8604   -1.5807   25.6936 C   0  0  0  0  0  0  0  0  0  0  0  0
   -8.5895   -0.2564   25.0697 C   0  0  0  0  0  0  0  0  0  0  0  0
  -10.7138    5.6847   28.1117 F   0  0  0  0  0  0  0  0  0  0  0  0
   -9.3931    6.6814   26.7132 F   0  0  0  0  0  0  0  0  0  0  0  0
   -8.6345    6.0476   28.6144 F   0  0  0  0  0  0  0  0  0  0  0  0
   -9.8709   -2.4118   24.9885 C   0  0  0  0  0  0  0  0  0  0  0  0
  -10.7542   -2.9133   25.4154 C   0  0  0  0  0  0  0  0  0  0  0  0
  -11.7454   -3.7150   24.6847 C   0  0  0  0  0  0  0  0  0  0  0  0
  2  3  1  0
  5  8  1  0
  3 14  1  0
  3 15  1  0
  3 16  1  0
 12 17  1  0
 17 18  2  3
 18 19  1  0
  1  2  2  0
  2  7  1  0
  7  6  2  0
  6  5  1  0
  5  4  2  0
  4  1  1  0
  8  9  2  0
  9 10  1  0
 10 11  2  0
 11 12  1  0
 12 13  2  0
 13  8  1  0
M  END
$$$$
