No_660-complexes_sdf/6BKW-FPZ/2024-09-17-14-21-01/
     RDKit          3D

 23 25  0  0  0  0  0  0  0  0999 V2000
   -7.9040    3.9820   27.1177 C   0  0  0  0  0  0  0  0  0  0  0  0
   -9.0711    4.3164   27.0630 C   0  0  0  0  0  0  0  0  0  0  0  0
  -10.0395    3.8218   27.1938 C   0  0  0  0  0  0  0  0  0  0  0  0
   -7.6424    2.5858   27.3610 C   0  0  0  0  0  0  0  0  0  0  0  0
   -8.7741    1.7889   27.4566 C   0  0  0  0  0  0  0  0  0  0  0  0
  -10.0155    2.3581   27.4300 C   0  0  0  0  0  0  0  0  0  0  0  0
   -9.1463    5.9504   26.8742 C   0  0  0  0  0  0  0  0  0  0  0  0
   -9.2055    6.3507   25.5991 F   0  0  0  0  0  0  0  0  0  0  0  0
   -7.9896    6.6014   27.3747 F   0  0  0  0  0  0  0  0  0  0  0  0
  -10.1744    6.4911   27.5896 F   0  0  0  0  0  0  0  0  0  0  0  0
   -6.0906    1.8973   27.3541 Cl  0  0  0  0  0  0  0  0  0  0  0  0
  -11.2430    1.5967   27.6597 C   0  0  0  0  0  0  0  0  0  0  0  0
  -12.1468    1.9945   28.5224 C   0  0  0  0  0  0  0  0  0  0  0  0
  -13.3340    1.2285   28.8364 C   0  0  0  0  0  0  0  0  0  0  0  0
  -13.4204    0.0034   28.1778 C   0  0  0  0  0  0  0  0  0  0  0  0
  -11.5816    0.2830   27.2022 C   0  0  0  0  0  0  0  0  0  0  0  0
  -10.4583   -0.2181   26.2579 C   0  0  0  0  0  0  0  0  0  0  0  0
  -12.6104   -0.4732   27.4568 C   0  0  0  0  0  0  0  0  0  0  0  0
  -10.1055   -1.4903   26.3098 C   0  0  0  0  0  0  0  0  0  0  0  0
   -9.1638   -2.0013   25.3795 C   0  0  0  0  0  0  0  0  0  0  0  0
   -8.5701   -1.1352   24.4714 C   0  0  0  0  0  0  0  0  0  0  0  0
   -8.9231    0.2270   24.4037 C   0  0  0  0  0  0  0  0  0  0  0  0
   -9.8311    0.6952   25.3130 C   0  0  0  0  0  0  0  0  0  0  0  0
  2  7  1  0
  7  8  1  0
  7  9  1  0
  7 10  1  0
  4 11  1  0
  6 12  1  0
 16 17  1  0
 17 19  2  0
 19 20  1  0
 20 21  2  0
 21 22  1  0
 22 23  2  0
 23 17  1  0
  1  2  2  0
  2  3  1  0
  3  6  2  0
  6  5  1  0
  5  4  2  0
  4  1  1  0
 12 13  2  0
 13 14  1  0
 14 15  2  0
 15 18  1  0
 18 16  2  0
 16 12  1  0
M  END
$$$$
