No_6503-complexes_sdf/6BKW-FPZ/2024-09-17-14-21-01/
     RDKit          3D

 28 31  0  0  0  0  0  0  0  0999 V2000
   -7.9040    3.9820   27.1177 C   0  0  0  0  0  0  0  0  0  0  0  0
   -9.0711    4.3164   27.0630 C   0  0  0  0  0  0  0  0  0  0  0  0
   -9.5182    5.5541   27.5777 C   0  0  0  0  0  0  0  0  0  0  0  0
   -6.9424    4.7983   27.8424 C   0  0  0  0  0  0  0  0  0  0  0  0
   -7.3526    5.9739   28.3909 C   0  0  0  0  0  0  0  0  0  0  0  0
   -8.6479    6.3742   28.2169 C   0  0  0  0  0  0  0  0  0  0  0  0
  -10.0793    3.4689   26.3368 C   0  0  0  0  0  0  0  0  0  0  0  0
   -9.6567    2.5965   25.4484 C   0  0  0  0  0  0  0  0  0  0  0  0
  -10.5086    1.8159   24.6228 C   0  0  0  0  0  0  0  0  0  0  0  0
  -11.8698    2.1070   24.6818 C   0  0  0  0  0  0  0  0  0  0  0  0
  -11.4792    3.7192   26.2197 C   0  0  0  0  0  0  0  0  0  0  0  0
  -12.3318    3.0883   25.5324 C   0  0  0  0  0  0  0  0  0  0  0  0
   -9.9717    0.7869   23.7392 C   0  0  0  0  0  0  0  0  0  0  0  0
   -9.8413    0.9958   22.4891 C   0  0  0  0  0  0  0  0  0  0  0  0
   -9.2075    0.0375   21.6361 C   0  0  0  0  0  0  0  0  0  0  0  0
   -8.7305   -1.1409   22.1926 C   0  0  0  0  0  0  0  0  0  0  0  0
   -8.8040   -1.3463   23.5272 C   0  0  0  0  0  0  0  0  0  0  0  0
   -9.3638   -0.3903   24.3556 C   0  0  0  0  0  0  0  0  0  0  0  0
  -10.2352    2.2749   21.7877 C   0  0  0  0  0  0  0  0  0  0  0  0
  -11.5621    2.6710   21.7231 C   0  0  0  0  0  0  0  0  0  0  0  0
  -11.8616    3.6104   21.0298 C   0  0  0  0  0  0  0  0  0  0  0  0
  -10.9061    4.5337   20.3976 C   0  0  0  0  0  0  0  0  0  0  0  0
   -9.5725    4.0932   20.4147 C   0  0  0  0  0  0  0  0  0  0  0  0
   -9.2305    2.9292   21.0275 C   0  0  0  0  0  0  0  0  0  0  0  0
  -13.7623    3.1758   25.5641 C   0  0  0  0  0  0  0  0  0  0  0  0
  -14.9164    4.3050   26.3744 Br  0  0  0  0  0  0  0  0  0  0  0  0
  -14.6363    2.2078   24.7801 C   0  0  0  0  0  0  0  0  0  0  0  0
  -14.9495    2.5195   23.6700 O   0  0  0  0  0  0  0  0  0  0  0  0
  2  7  1  0
  9 13  1  0
 14 19  1  0
 12 25  1  0
 25 26  1  0
 25 27  1  0
 27 28  2  0
  7  8  2  0
  8  9  1  0
  9 10  2  0
 10 12  1  0
 12 11  2  0
 11  7  1  0
 13 14  1  0
 14 15  2  0
 15 16  1  0
 16 17  2  0
 17 18  1  0
 18 13  2  0
  1  2  2  0
  2  3  1  0
  3  6  2  0
  6  5  1  0
  5  4  2  0
  4  1  1  0
 19 20  2  0
 20 21  1  0
 21 22  2  0
 22 23  1  0
 23 24  2  0
 24 19  1  0
M  END
$$$$
