No_6692-complexes_sdf/6BKW-FPZ/2024-09-17-14-21-01/
     RDKit          3D

 40 46  0  0  0  0  0  0  0  0999 V2000
   -7.7129    4.2099   27.0854 C   0  0  0  0  0  0  0  0  0  0  0  0
   -8.9133    4.4736   27.0998 C   0  0  0  0  0  0  0  0  0  0  0  0
   -9.7135    3.9633   26.0300 C   0  0  0  0  0  0  0  0  0  0  0  0
   -6.8655    4.8824   28.1822 C   0  0  0  0  0  0  0  0  0  0  0  0
  -10.8856    4.5824   25.6430 C   0  0  0  0  0  0  0  0  0  0  0  0
   -7.2976    5.7414   28.7932 N   0  0  0  0  0  0  0  0  0  0  0  0
  -11.5968    5.0610   26.7548 C   0  0  0  0  0  0  0  0  0  0  0  0
  -12.9334    5.2301   26.7590 C   0  0  0  0  0  0  0  0  0  0  0  0
   -8.6652    6.1540   28.5901 C   0  0  0  0  0  0  0  0  0  0  0  0
   -9.4356    5.5774   27.7452 C   0  0  0  0  0  0  0  0  0  0  0  0
  -10.8028    5.6229   27.8869 C   0  0  0  0  0  0  0  0  0  0  0  0
  -13.7863    4.2057   27.3438 C   0  0  0  0  0  0  0  0  0  0  0  0
  -15.1189    4.3924   27.4359 C   0  0  0  0  0  0  0  0  0  0  0  0
  -15.6755    5.5506   26.8807 C   0  0  0  0  0  0  0  0  0  0  0  0
  -14.9281    6.4192   26.1939 C   0  0  0  0  0  0  0  0  0  0  0  0
  -13.6677    6.2791   26.1717 C   0  0  0  0  0  0  0  0  0  0  0  0
   -9.0928    3.1250   24.9586 C   0  0  0  0  0  0  0  0  0  0  0  0
  -10.0201    2.4859   24.0833 C   0  0  0  0  0  0  0  0  0  0  0  0
  -10.2404    1.3078   24.2511 C   0  0  1  0  0  0  0  0  0  0  0  0
   -9.7195    0.4735   25.2075 C   0  0  0  0  0  0  0  0  0  0  0  0
   -8.5394    0.3298   25.0512 C   0  0  0  0  0  0  0  0  0  0  0  0
   -7.8293   -0.6065   26.0665 C   0  0  0  0  0  0  0  0  0  0  0  0
   -6.4383   -0.6263   26.1615 C   0  0  0  0  0  0  0  0  0  0  0  0
   -5.7984   -1.1453   27.2552 C   0  0  0  0  0  0  0  0  0  0  0  0
   -6.5718   -1.7511   28.2870 C   0  0  0  0  0  0  0  0  0  0  0  0
   -7.9494   -1.6363   28.2313 C   0  0  0  0  0  0  0  0  0  0  0  0
   -8.5690   -0.9814   27.2011 C   0  0  0  0  0  0  0  0  0  0  0  0
   -9.9697   -0.8994   27.2549 C   0  0  0  0  0  0  0  0  0  0  0  0
  -10.4333   -0.0609   26.3601 C   0  0  0  0  0  0  0  0  0  0  0  0
  -11.2857    0.6222   23.4011 C   0  0  0  0  0  0  0  0  0  0  0  0
  -11.7364    0.9590   22.4784 O   0  0  0  0  0  0  0  0  0  0  0  0
  -11.7089   -0.6310   23.8123 O   0  0  0  0  0  0  0  0  0  0  0  0
   -5.8757   -2.3147   29.4964 C   0  0  0  0  0  0  0  0  0  0  0  0
   -6.5605   -2.7767   30.4343 C   0  0  0  0  0  0  0  0  0  0  0  0
   -5.9907   -3.2379   31.6588 C   0  0  0  0  0  0  0  0  0  0  0  0
   -6.7466   -3.4844   32.8530 C   0  0  0  0  0  0  0  0  0  0  0  0
   -8.1634   -3.3418   32.7594 C   0  0  0  0  0  0  0  0  0  0  0  0
   -8.7464   -2.8816   31.5997 C   0  0  0  0  0  0  0  0  0  0  0  0
   -7.9925   -2.5231   30.5206 C   0  0  0  0  0  0  0  0  0  0  0  0
   -8.6645   -2.0298   29.3815 C   0  0  0  0  0  0  0  0  0  0  0  0
  7  8  1  0
  3 17  1  0
 17 18  2  3
 18 19  1  0
 19 20  1  0
 19 30  1  1
 30 31  2  0
 30 32  1  0
  1  2  2  0
 10  9  2  0
  9  6  1  0
  6  4  2  0
  4  1  1  0
 22 23  2  0
 23 24  1  0
 24 25  2  0
 26 27  2  0
 25 26  1  0
 26 40  1  0
 40 39  2  0
 34 33  2  0
 33 25  1  0
 34 35  1  0
 35 36  2  0
 36 37  1  0
 37 38  2  0
 38 39  1  0
 39 34  1  0
 20 21  2  0
 21 22  1  0
 22 27  1  0
 27 28  1  0
 28 29  2  0
 29 20  1  0
  8 12  2  0
 12 13  1  0
 13 14  2  0
 14 15  1  0
 15 16  2  0
 16  8  1  0
  2  3  1  0
  3  5  2  0
  5  7  1  0
  7 11  2  0
 11 10  1  0
 10  2  1  0
M  END
$$$$
