No_6956-complexes_sdf/6BKW-FPZ/2024-09-17-14-21-01/
     RDKit          3D

 29 33  0  0  0  0  0  0  0  0999 V2000
   -7.9040    3.9820   27.1177 C   0  0  0  0  0  0  0  0  0  0  0  0
   -9.0711    4.3164   27.0630 C   0  0  0  0  0  0  0  0  0  0  0  0
  -10.0395    3.8218   27.1938 C   0  0  0  0  0  0  0  0  0  0  0  0
   -7.6424    2.5858   27.3610 C   0  0  0  0  0  0  0  0  0  0  0  0
   -8.7646    1.7754   27.4263 C   0  0  0  0  0  0  0  0  0  0  0  0
   -9.9966    2.3406   27.3957 C   0  0  0  0  0  0  0  0  0  0  0  0
  -11.2016    1.4680   27.6051 C   0  0  0  0  0  0  0  0  0  0  0  0
  -10.9539    0.2135   27.7367 C   0  0  0  0  0  0  0  0  0  0  0  0
  -12.0190   -0.5933   28.2473 C   0  0  0  0  0  0  0  0  0  0  0  0
  -12.1220    1.9899   28.6445 C   0  0  0  0  0  0  0  0  0  0  0  0
  -13.2321    1.3145   29.0664 C   0  0  0  0  0  0  0  0  0  0  0  0
  -13.0777   -0.0561   28.9334 C   0  0  0  0  0  0  0  0  0  0  0  0
   -6.3576    2.0759   27.3402 N   0  0  0  0  0  0  0  0  0  0  0  0
   -6.0283    0.7904   27.3494 C   0  0  0  0  0  0  0  0  0  0  0  0
   -6.8153   -0.1476   27.0528 C   0  0  0  0  0  0  0  0  0  0  0  0
   -8.4779    0.3156   27.3323 C   0  0  0  0  0  0  0  0  0  0  0  0
   -9.5975   -0.5413   27.5187 C   0  0  0  0  0  0  0  0  0  0  0  0
   -4.5761    0.4753   27.4692 C   0  0  0  0  0  0  0  0  0  0  0  0
   -4.3277   -0.3670   28.4239 N   0  0  0  0  0  0  0  0  0  0  0  0
   -4.3538    0.0159   29.7216 C   0  0  0  0  0  0  0  0  0  0  0  0
   -4.1630   -0.9843   30.8134 C   0  0  0  0  0  0  0  0  0  0  0  0
   -2.9879   -1.0689   28.2740 C   0  0  2  0  0  0  0  0  0  0  0  0
   -8.9505    5.9009   26.6679 C   0  0  0  0  0  0  0  0  0  0  0  0
   -9.3971    6.2514   25.5803 F   0  0  0  0  0  0  0  0  0  0  0  0
   -7.7054    6.4712   26.8764 F   0  0  0  0  0  0  0  0  0  0  0  0
   -9.8711    6.5905   27.5840 F   0  0  0  0  0  0  0  0  0  0  0  0
   -2.8125   -1.5107   26.9145 C   0  0  0  0  0  0  0  0  0  0  0  0
   -2.8440   -1.5690   30.6874 C   0  0  0  0  0  0  0  0  0  0  0  0
   -2.3097   -1.6767   29.3733 C   0  0  0  0  0  0  0  0  0  0  0  0
  6  7  1  0
  8 17  1  0
 16 17  1  0
 14 18  1  0
 18 19  1  0
 19 20  1  0
 19 22  1  0
  2 23  1  0
 23 24  1  0
 23 25  1  0
 23 26  1  0
 22 27  1  6
 21 28  1  0
 22 29  1  0
 28 29  1  0
 20 21  1  0
  1  2  2  0
  2  3  1  0
  3  6  2  0
  6  5  1  0
  4  1  1  0
  4  5  2  0
  5 16  1  0
 16 15  2  0
 15 14  1  0
 14 13  2  0
 13  4  1  0
  7  8  2  0
  8  9  1  0
  9 12  2  0
 12 11  1  0
 11 10  2  0
 10  7  1  0
M  END
$$$$
