No_6312-complexes_sdf/6BKW-FPZ/2024-09-17-14-21-01/
     RDKit          3D

 19 20  0  0  0  0  0  0  0  0999 V2000
   -7.7129    4.2099   27.0854 C   0  0  0  0  0  0  0  0  0  0  0  0
   -8.2112    3.0637   26.9225 C   0  0  0  0  0  0  0  0  0  0  0  0
   -9.4446    2.8304   26.1868 C   0  0  0  0  0  0  0  0  0  0  0  0
   -8.4697    5.3956   26.7238 C   0  0  0  0  0  0  0  0  0  0  0  0
   -9.6172    5.2111   25.9513 C   0  0  0  0  0  0  0  0  0  0  0  0
  -10.0424    3.9782   25.6873 C   0  0  0  0  0  0  0  0  0  0  0  0
   -7.5056    1.8167   27.4088 C   0  0  0  0  0  0  0  0  0  0  0  0
   -6.1365    1.8782   27.7502 C   0  0  0  0  0  0  0  0  0  0  0  0
   -5.4402    0.7398   28.2080 C   0  0  0  0  0  0  0  0  0  0  0  0
   -6.0836   -0.4843   28.1647 C   0  0  0  0  0  0  0  0  0  0  0  0
   -8.1783    0.5771   27.4928 C   0  0  0  0  0  0  0  0  0  0  0  0
   -7.4529   -0.5324   27.8726 C   0  0  0  0  0  0  0  0  0  0  0  0
   -7.9613    6.7382   27.0434 C   0  0  0  0  0  0  0  0  0  0  0  0
   -7.1109    6.8106   27.9644 O   0  0  0  0  0  0  0  0  0  0  0  0
   -8.1928    7.8748   26.2998 N   0  0  0  0  0  0  0  0  0  0  0  0
   -4.0015    0.8756   28.5382 C   0  0  0  0  0  0  0  0  0  0  0  0
   -3.6349    0.5145   29.6870 O   0  0  0  0  0  0  0  0  0  0  0  0
   -3.1582    1.2054   27.6029 O   0  0  0  0  0  0  0  0  0  0  0  0
  -11.4417    3.8020   24.7019 Cl  0  0  0  0  0  0  0  0  0  0  0  0
  2  7  1  0
  4 13  1  0
 13 14  2  0
 13 15  1  0
  9 16  1  0
 16 17  2  0
 16 18  1  0
  6 19  1  0
  7  8  2  0
  8  9  1  0
  9 10  2  0
 10 12  1  0
 12 11  2  0
 11  7  1  0
  1  2  2  0
  2  3  1  0
  3  6  2  0
  6  5  1  0
  5  4  2  0
  4  1  1  0
M  END
$$$$
