No_6878-complexes_sdf/6BKW-FPZ/2024-09-17-14-21-01/
     RDKit          3D

 30 33  0  0  0  0  0  0  0  0999 V2000
   -7.7129    4.2099   27.0854 C   0  0  0  0  0  0  0  0  0  0  0  0
   -7.7814    5.1722   27.8972 C   0  0  0  0  0  0  0  0  0  0  0  0
   -8.8255    3.2789   27.1191 C   0  0  0  0  0  0  0  0  0  0  0  0
   -9.9209    3.4734   27.9101 C   0  0  0  0  0  0  0  0  0  0  0  0
   -9.9736    4.7085   28.6831 C   0  0  0  0  0  0  0  0  0  0  0  0
   -8.8840    5.5441   28.6612 C   0  0  0  0  0  0  0  0  0  0  0  0
   -8.7102    2.0171   26.3293 C   0  0  0  0  0  0  0  0  0  0  0  0
   -9.2831    1.9661   25.0865 C   0  0  0  0  0  0  0  0  0  0  0  0
   -9.9818    3.1287   24.5934 C   0  0  0  0  0  0  0  0  0  0  0  0
  -10.1540    4.2652   25.3441 C   0  0  0  0  0  0  0  0  0  0  0  0
  -10.3870    3.1944   23.1579 C   0  0  0  0  0  0  0  0  0  0  0  0
  -10.7703    4.3645   22.6444 C   0  0  0  0  0  0  0  0  0  0  0  0
  -10.7963    5.4538   24.5483 C   0  0  0  0  0  0  0  0  0  0  0  0
  -10.9957    5.4432   23.2991 C   0  0  0  0  0  0  0  0  0  0  0  0
   -7.9422    0.9569   26.9007 C   0  0  0  0  0  0  0  0  0  0  0  0
   -7.7655   -0.2584   26.3232 C   0  0  0  0  0  0  0  0  0  0  0  0
   -8.4192   -0.2679   24.9711 C   0  0  0  0  0  0  0  0  0  0  0  0
   -9.1121    0.7967   24.3695 C   0  0  0  0  0  0  0  0  0  0  0  0
  -11.0491    4.2685   21.1371 C   0  0  0  0  0  0  0  0  0  0  0  0
  -10.2656    3.6839   20.5804 F   0  0  0  0  0  0  0  0  0  0  0  0
  -12.2982    3.7510   21.0039 F   0  0  0  0  0  0  0  0  0  0  0  0
  -11.1088    5.5712   20.7920 F   0  0  0  0  0  0  0  0  0  0  0  0
  -11.0296    2.5767   27.9910 C   0  0  0  0  0  0  0  0  0  0  0  0
  -12.1735    2.9066   28.7033 C   0  0  0  0  0  0  0  0  0  0  0  0
  -13.1779    2.6876   28.3882 C   0  0  0  0  0  0  0  0  0  0  0  0
  -14.4062    3.2755   29.0452 C   0  0  0  0  0  0  0  0  0  0  0  0
  -15.6700    3.3153   28.5445 C   0  0  0  0  0  0  0  0  0  0  0  0
  -15.8772    2.5677   27.3628 C   0  0  0  0  0  0  0  0  0  0  0  0
  -14.8463    1.9507   26.7075 C   0  0  0  0  0  0  0  0  0  0  0  0
  -13.5734    2.0677   27.1341 C   0  0  0  0  0  0  0  0  0  0  0  0
  3  7  1  0
  8  9  1  0
 12 19  1  0
 19 20  1  0
 19 21  1  0
 19 22  1  0
  4 23  1  0
 23 24  1  0
 24 25  1  0
  9 10  2  0
 10 13  1  0
 13 14  2  0
 14 12  1  0
 12 11  2  0
 11  9  1  0
  1  2  2  0
  2  6  1  0
  6  5  2  0
  5  4  1  0
  4  3  2  0
  3  1  1  0
 25 26  2  0
 26 27  1  0
 27 28  2  0
 28 29  1  0
 29 30  2  0
 30 25  1  0
  7  8  2  0
  8 18  1  0
 18 17  2  0
 17 16  1  0
 16 15  2  0
 15  7  1  0
M  END
$$$$
