No_6422-complexes_sdf/6BKW-FPZ/2024-09-17-14-21-01/
     RDKit          3D

 14 15  0  0  0  0  0  0  0  0999 V2000
   -7.9040    3.9820   27.1177 C   0  0  0  0  0  0  0  0  0  0  0  0
   -9.0711    4.3164   27.0630 C   0  0  0  0  0  0  0  0  0  0  0  0
   -9.5294    5.4517   27.7215 C   0  0  0  0  0  0  0  0  0  0  0  0
  -10.0314    3.1095   27.2528 C   0  0  0  0  0  0  0  0  0  0  0  0
  -10.4559    2.7065   25.9774 C   0  0  0  0  0  0  0  0  0  0  0  0
  -11.3923    1.9963   25.8543 C   0  0  0  0  0  0  0  0  0  0  0  0
   -9.6783    3.0817   24.7861 C   0  0  0  0  0  0  0  0  0  0  0  0
  -10.0872    2.6766   23.5356 C   0  0  0  0  0  0  0  0  0  0  0  0
  -11.8443    1.4353   24.5404 C   0  0  0  0  0  0  0  0  0  0  0  0
  -11.1042    1.8413   23.3836 C   0  0  0  0  0  0  0  0  0  0  0  0
   -6.8567    4.8874   27.7250 C   0  0  0  0  0  0  0  0  0  0  0  0
   -7.4946    5.7562   28.5122 C   0  0  0  0  0  0  0  0  0  0  0  0
   -8.7083    6.2548   28.3601 C   0  0  0  0  0  0  0  0  0  0  0  0
  -10.3948    2.6163   28.2850 O   0  0  0  0  0  0  0  0  0  0  0  0
  2  4  1  0
  4  5  1  0
  4 14  2  0
  5  6  2  0
  6  9  1  0
  9 10  2  0
 10  8  1  0
  8  7  2  0
  7  5  1  0
  1  2  2  0
  2  3  1  0
  3 13  2  0
 13 12  1  0
 12 11  2  0
 11  1  1  0
M  END
$$$$
