No_6537-complexes_sdf/6BKW-FPZ/2024-09-17-14-21-01/
     RDKit          3D

 28 31  0  0  0  0  0  0  0  0999 V2000
   -7.7129    4.2099   27.0854 C   0  0  0  0  0  0  0  0  0  0  0  0
   -8.2112    3.0637   26.9225 C   0  0  0  0  0  0  0  0  0  0  0  0
   -8.5108    5.3904   26.9436 C   0  0  0  0  0  0  0  0  0  0  0  0
   -9.7256    5.1955   26.3518 C   0  0  0  0  0  0  0  0  0  0  0  0
   -9.4995    2.8258   26.4878 C   0  0  0  0  0  0  0  0  0  0  0  0
  -10.2542    3.9691   26.2055 C   0  0  0  0  0  0  0  0  0  0  0  0
   -7.9135    6.7086   27.1885 C   0  0  0  0  0  0  0  0  0  0  0  0
   -7.3624    1.8198   27.2561 C   0  0  0  0  0  0  0  0  0  0  0  0
   -6.0561    1.9823   27.7522 C   0  0  0  0  0  0  0  0  0  0  0  0
   -5.2693    0.8235   28.0672 C   0  0  0  0  0  0  0  0  0  0  0  0
   -5.8377   -0.4242   27.9045 C   0  0  0  0  0  0  0  0  0  0  0  0
   -7.7731    0.5008   27.1574 C   0  0  0  0  0  0  0  0  0  0  0  0
   -9.1664    0.3856   26.7246 C   0  0  0  0  0  0  0  0  0  0  0  0
   -7.0679   -0.5534   27.5332 C   0  0  0  0  0  0  0  0  0  0  0  0
   -9.9795    1.5158   26.3476 C   0  0  0  0  0  0  0  0  0  0  0  0
   -3.8684    1.1211   28.5416 C   0  0  0  0  0  0  0  0  0  0  0  0
   -3.0913    1.4258   27.7950 O   0  0  0  0  0  0  0  0  0  0  0  0
   -3.5404    0.4690   29.7505 O   0  0  0  0  0  0  0  0  0  0  0  0
   -8.5920    7.8179   26.8282 N   0  0  0  0  0  0  0  0  0  0  0  0
   -6.7528    6.8335   27.8058 N   0  0  0  0  0  0  0  0  0  0  0  0
  -11.3401    1.2800   25.9045 C   0  0  0  0  0  0  0  0  0  0  0  0
  -11.8000    0.1751   26.1276 C   0  0  0  0  0  0  0  0  0  0  0  0
  -11.0702   -0.9994   26.5042 C   0  0  0  0  0  0  0  0  0  0  0  0
   -9.7733   -0.8720   26.8461 C   0  0  0  0  0  0  0  0  0  0  0  0
  -11.7198   -2.3274   26.6498 C   0  0  0  0  0  0  0  0  0  0  0  0
  -12.0303   -2.7449   27.7681 N   0  0  0  0  0  0  0  0  0  0  0  0
  -12.2760   -3.6452   28.2454 C   0  0  0  0  0  0  0  0  0  0  0  0
  -12.2824   -4.2809   29.0774 C   0  0  0  0  0  0  0  0  0  0  0  0
  3  7  1  0
  2  8  1  0
 12 13  1  0
  5 15  1  0
 10 16  1  0
 16 17  2  0
 16 18  1  0
  7 19  2  0
  7 20  1  0
 23 25  1  0
 25 26  1  0
 26 27  1  0
 27 28  2  0
  8  9  2  0
  9 10  1  0
 10 11  2  0
 11 14  1  0
 14 12  2  0
 12  8  1  0
  1  2  2  0
  2  5  1  0
  5  6  2  0
  6  4  1  0
  4  3  2  0
  3  1  1  0
 13 15  2  0
 15 21  1  0
 21 22  2  0
 22 23  1  0
 23 24  2  0
 24 13  1  0
M  END
$$$$
