No_6539-complexes_sdf/6BKW-FPZ/2024-09-17-14-21-01/
     RDKit          3D

 16 18  0  0  0  0  0  0  0  0999 V2000
   -7.9040    3.9820   27.1177 C   0  0  0  0  0  0  0  0  0  0  0  0
   -9.0711    4.3164   27.0630 C   0  0  0  0  0  0  0  0  0  0  0  0
   -9.8698    3.9665   25.9495 C   0  0  1  0  0  0  0  0  0  0  0  0
   -7.0332    4.5030   28.2025 C   0  0  0  0  0  0  0  0  0  0  0  0
  -10.9909    4.7237   25.5958 C   0  0  0  0  0  0  0  0  0  0  0  0
   -7.5840    5.4918   28.9036 N   0  0  0  0  0  0  0  0  0  0  0  0
  -11.7343    4.2277   24.5327 C   0  0  0  0  0  0  0  0  0  0  0  0
  -11.2834    3.2344   23.7040 C   0  0  0  0  0  0  0  0  0  0  0  0
  -10.1300    2.5769   24.0078 C   0  0  0  0  0  0  0  0  0  0  0  0
   -9.3810    2.9936   25.1156 C   0  0  0  0  0  0  0  0  0  0  0  0
   -9.3070    5.4343   27.9838 C   0  0  0  0  0  0  0  0  0  0  0  0
   -8.7497    5.9836   28.7758 C   0  0  0  0  0  0  0  0  0  0  0  0
   -9.6351    1.4509   23.1650 C   0  0  0  0  0  0  0  0  0  0  0  0
  -10.0057    1.3480   21.9256 N   0  0  0  0  0  0  0  0  0  0  0  0
  -10.4857    2.3446   21.2910 C   0  0  0  0  0  0  0  0  0  0  0  0
  -11.4846    3.2041   22.1134 C   0  0  0  0  0  0  0  0  0  0  0  0
  3  5  1  0
  5  7  1  0
  7  8  1  0
  3 10  1  0
  9 10  1  0
  3  2  1  6
  1  2  2  0
  2 11  1  0
 11 12  2  0
 12  6  1  0
  6  4  2  0
  4  1  1  0
  8  9  2  0
  9 13  1  0
 13 14  2  0
 14 15  1  0
 15 16  2  0
 16  8  1  0
M  END
$$$$
