No_6841-complexes_sdf/6BKW-FPZ/2024-09-17-14-21-01/
     RDKit          3D

 26 29  0  0  0  0  0  0  0  0999 V2000
   -7.2496    3.8871   27.4508 C   0  0  0  0  0  0  0  0  0  0  0  0
   -7.6161    2.7143   27.1523 C   0  0  0  0  0  0  0  0  0  0  0  0
   -8.8302    2.4659   26.5056 C   0  0  0  0  0  0  0  0  0  0  0  0
   -8.1584    5.0090   27.3234 C   0  0  0  0  0  0  0  0  0  0  0  0
   -9.3788    4.7965   26.7695 C   0  0  0  0  0  0  0  0  0  0  0  0
   -9.7028    3.5649   26.3276 C   0  0  0  0  0  0  0  0  0  0  0  0
   -6.7182    1.5519   27.3631 C   0  0  0  0  0  0  0  0  0  0  0  0
   -5.5596    1.7410   28.0262 N   0  0  0  0  0  0  0  0  0  0  0  0
   -7.0052    0.2404   26.9845 C   0  0  0  0  0  0  0  0  0  0  0  0
   -4.7541    0.6608   28.2284 C   0  0  0  0  0  0  0  0  0  0  0  0
   -8.2956    0.0078   26.3240 C   0  0  0  0  0  0  0  0  0  0  0  0
   -9.1696    1.1168   26.1032 C   0  0  0  0  0  0  0  0  0  0  0  0
   -3.4405    1.0339   28.7922 C   0  0  0  0  0  0  0  0  0  0  0  0
   -5.3474   -0.4659   28.7670 C   0  0  0  0  0  0  0  0  0  0  0  0
   -6.4419   -0.8925   27.8381 C   0  0  0  0  0  0  0  0  0  0  0  0
   -7.6996    6.3472   27.8405 C   0  0  0  0  0  0  0  0  0  0  0  0
  -10.9737    3.4059   25.5893 C   0  0  0  0  0  0  0  0  0  0  0  0
  -10.9217    3.7313   24.2596 C   0  0  0  0  0  0  0  0  0  0  0  0
  -12.0965    3.6551   23.4614 C   0  0  0  0  0  0  0  0  0  0  0  0
  -13.2788    3.3345   24.0433 C   0  0  0  0  0  0  0  0  0  0  0  0
  -12.1244    3.0491   26.2025 C   0  0  0  0  0  0  0  0  0  0  0  0
  -13.3106    3.0430   25.4517 C   0  0  0  0  0  0  0  0  0  0  0  0
   -8.6500   -1.2830   25.8772 C   0  0  0  0  0  0  0  0  0  0  0  0
   -9.7167   -1.5067   25.6230 N   0  0  0  0  0  0  0  0  0  0  0  0
  -10.3601   -2.4989   25.1353 C   0  0  0  0  0  0  0  0  0  0  0  0
  -11.7366   -2.5324   24.8243 C   0  0  0  0  0  0  0  0  0  0  0  0
  2  7  1  0
  9 11  1  0
  3 12  1  0
 11 12  1  0
 10 13  1  0
  4 16  1  0
  6 17  1  0
 11 23  1  0
 23 24  1  0
 24 25  1  0
 25 26  2  0
  7  8  2  0
  8 10  1  0
 10 14  2  0
 14 15  1  0
 15  9  2  0
  9  7  1  0
 17 18  2  0
 18 19  1  0
 19 20  2  0
 20 22  1  0
 22 21  2  0
 21 17  1  0
  1  2  2  0
  2  3  1  0
  3  6  2  0
  6  5  1  0
  5  4  2  0
  4  1  1  0
M  END
$$$$
