No_6702-complexes_sdf/6BKW-FPZ/2024-09-17-14-21-01/
     RDKit          3D

 12 13  0  0  0  0  0  0  0  0999 V2000
   -7.9040    3.9820   27.1177 C   0  0  0  0  0  0  0  0  0  0  0  0
   -8.2057    2.8231   26.8733 C   0  0  0  0  0  0  0  0  0  0  0  0
   -8.7463    4.9537   27.6708 C   0  0  0  0  0  0  0  0  0  0  0  0
  -10.0901    4.5164   28.0293 C   0  0  0  0  0  0  0  0  0  0  0  0
   -7.3231    1.8031   26.4889 C   0  0  0  0  0  0  0  0  0  0  0  0
   -9.5869    2.3362   27.0829 C   0  0  0  0  0  0  0  0  0  0  0  0
   -9.9620    1.0347   26.7998 C   0  0  0  0  0  0  0  0  0  0  0  0
  -10.4782    3.2647   27.7051 C   0  0  0  0  0  0  0  0  0  0  0  0
  -10.9148    0.6220   26.7020 C   0  0  0  0  0  0  0  0  0  0  0  0
   -8.8177    0.0808   26.8934 C   0  0  0  0  0  0  0  0  0  0  0  0
   -9.0109   -1.3363   26.8570 C   0  0  0  0  0  0  0  0  0  0  0  0
   -7.4512    0.5010   26.6776 C   0  0  0  0  0  0  0  0  0  0  0  0
  7  9  1  0
 10 11  1  0
  1  2  2  0
  6  8  2  0
  8  4  1  0
  4  3  2  0
  3  1  1  0
  2  5  1  0
  5 12  2  0
 12 10  1  0
 10  7  2  0
  7  6  1  0
  6  2  1  0
M  END
$$$$
