No_6160-complexes_sdf/6BKW-FPZ/2024-09-17-14-21-01/
     RDKit          3D

 29 32  0  0  0  0  0  0  0  0999 V2000
   -7.9040    3.9820   27.1177 C   0  0  0  0  0  0  0  0  0  0  0  0
   -8.2057    2.8231   26.8733 C   0  0  0  0  0  0  0  0  0  0  0  0
   -7.4766    1.7477   27.4593 C   0  0  0  0  0  0  0  0  0  0  0  0
   -8.7468    5.1251   26.6967 C   0  0  0  0  0  0  0  0  0  0  0  0
   -9.7234    4.8589   25.8202 C   0  0  0  0  0  0  0  0  0  0  0  0
   -9.9711    3.5858   25.4266 C   0  0  0  0  0  0  0  0  0  0  0  0
   -9.2266    2.4957   25.9600 C   0  0  0  0  0  0  0  0  0  0  0  0
   -6.1127    1.9031   27.8472 C   0  0  0  0  0  0  0  0  0  0  0  0
   -5.3493    0.8225   28.3589 C   0  0  0  0  0  0  0  0  0  0  0  0
   -5.8541   -0.4405   28.4024 C   0  0  0  0  0  0  0  0  0  0  0  0
   -7.6923    0.3396   27.3519 C   0  0  0  0  0  0  0  0  0  0  0  0
   -7.1004   -0.6359   27.9184 C   0  0  0  0  0  0  0  0  0  0  0  0
   -8.4109    6.5075   27.1139 C   0  0  0  0  0  0  0  0  0  0  0  0
   -7.9653    6.8239   28.2464 N   0  0  0  0  0  0  0  0  0  0  0  0
   -8.7181    7.5307   26.2836 N   0  0  0  0  0  0  0  0  0  0  0  0
   -5.0302   -1.5199   29.0125 C   0  0  0  0  0  0  0  0  0  0  0  0
   -5.5034   -2.5457   29.2011 F   0  0  0  0  0  0  0  0  0  0  0  0
   -4.5187   -1.0087   30.2359 F   0  0  0  0  0  0  0  0  0  0  0  0
   -3.9002   -1.6503   28.2293 F   0  0  0  0  0  0  0  0  0  0  0  0
  -11.0072    3.3236   24.4309 C   0  0  0  0  0  0  0  0  0  0  0  0
  -12.2553    3.1214   24.7314 C   0  0  0  0  0  0  0  0  0  0  0  0
  -10.6291    3.3206   23.0397 C   0  0  0  0  0  0  0  0  0  0  0  0
  -11.3775    3.1533   21.9610 C   0  0  0  0  0  0  0  0  0  0  0  0
  -12.7508    3.0350   26.0193 C   0  0  0  0  0  0  0  0  0  0  0  0
  -14.0912    2.8815   26.2727 C   0  0  0  0  0  0  0  0  0  0  0  0
  -12.7723    2.9697   22.3062 C   0  0  0  0  0  0  0  0  0  0  0  0
  -13.2158    2.9902   23.6293 C   0  0  0  0  0  0  0  0  0  0  0  0
  -14.8993    2.7764   25.1843 C   0  0  0  0  0  0  0  0  0  0  0  0
  -14.5835    2.8283   23.8637 C   0  0  0  0  0  0  0  0  0  0  0  0
  2  3  1  0
  4 13  1  0
 13 14  2  0
 13 15  1  0
 10 16  1  0
 16 17  1  0
 16 18  1  0
 16 19  1  0
  6 20  1  0
 20 21  2  0
 27 26  2  0
 26 23  1  0
 23 22  2  0
 22 20  1  0
 21 24  1  0
 24 25  2  0
 25 28  1  0
 28 29  2  0
 29 27  1  0
 27 21  1  0
  3  8  2  0
  8  9  1  0
  9 10  2  0
 10 12  1  0
 12 11  2  0
 11  3  1  0
  1  2  2  0
  2  7  1  0
  7  6  2  0
  6  5  1  0
  5  4  2  0
  4  1  1  0
M  END
$$$$
