No_6969-complexes_sdf/6BKW-FPZ/2024-09-17-14-21-01/
     RDKit          3D

 15 16  0  0  0  0  0  0  0  0999 V2000
   -7.9040    3.9820   27.1177 C   0  0  0  0  0  0  0  0  0  0  0  0
   -9.0711    4.3164   27.0630 C   0  0  0  0  0  0  0  0  0  0  0  0
   -9.9692    3.7224   26.1073 C   0  0  0  0  0  0  0  0  0  0  0  0
   -7.4776    2.6994   26.6283 C   0  0  0  0  0  0  0  0  0  0  0  0
   -8.4406    1.9440   25.9776 C   0  0  0  0  0  0  0  0  0  0  0  0
   -9.6379    2.5001   25.6881 C   0  0  0  0  0  0  0  0  0  0  0  0
   -7.0025    4.5948   27.9221 F   0  0  0  0  0  0  0  0  0  0  0  0
  -10.6113    1.7254   24.8406 C   0  0  0  0  0  0  0  0  0  0  0  0
  -10.7870    2.0238   23.6294 C   0  0  0  0  0  0  0  0  0  0  0  0
  -11.6844    1.3127   22.7310 C   0  0  0  0  0  0  0  0  0  0  0  0
  -12.3407    0.2120   23.2709 C   0  0  0  0  0  0  0  0  0  0  0  0
  -11.2135    0.5848   25.1632 C   0  0  0  0  0  0  0  0  0  0  0  0
  -12.0641   -0.1350   24.5114 C   0  0  0  0  0  0  0  0  0  0  0  0
   -9.4802    5.7607   27.5068 C   0  0  0  0  0  0  0  0  0  0  0  0
   -8.4335    6.7479   27.6141 C   0  0  0  0  0  0  0  0  0  0  0  0
  1  7  1  0
  6  8  1  0
  2 14  1  0
 14 15  1  0
  1  2  2  0
  2  3  1  0
  3  6  2  0
  6  5  1  0
  5  4  2  0
  4  1  1  0
  8  9  2  0
  9 10  1  0
 10 11  2  0
 11 13  1  0
 13 12  2  0
 12  8  1  0
M  END
$$$$
