No_6361-complexes_sdf/6BKW-FPZ/2024-09-17-14-21-01/
     RDKit          3D

 31 33  0  0  0  0  0  0  0  0999 V2000
   -7.2496    3.8871   27.4508 C   0  0  0  0  0  0  0  0  0  0  0  0
   -7.9379    4.9063   27.8518 C   0  0  1  0  0  0  0  0  0  0  0  0
   -7.5112    6.1898   27.6280 C   0  0  0  0  0  0  0  0  0  0  0  0
   -9.3085    4.6933   28.2930 C   0  0  0  0  0  0  0  0  0  0  0  0
   -6.9424    2.7755   27.7938 C   0  0  0  0  0  0  0  0  0  0  0  0
   -6.0490    1.8085   27.3011 C   0  0  0  0  0  0  0  0  0  0  0  0
   -6.3167    0.5184   27.4405 C   0  0  0  0  0  0  0  0  0  0  0  0
   -7.5932    0.0350   27.3516 C   0  0  0  0  0  0  0  0  0  0  0  0
   -7.8607   -1.3254   27.5220 C   0  0  0  0  0  0  0  0  0  0  0  0
   -6.7877   -2.1385   27.8115 C   0  0  0  0  0  0  0  0  0  0  0  0
   -5.3354   -0.5646   27.7607 C   0  0  0  0  0  0  0  0  0  0  0  0
   -5.5587   -1.7907   27.9387 C   0  0  0  0  0  0  0  0  0  0  0  0
   -8.4693    7.2331   27.0771 C   0  0  0  0  0  0  0  0  0  0  0  0
   -3.8795    0.0191   27.9251 C   0  0  0  0  0  0  0  0  0  0  0  0
   -3.6417    0.9209   27.1811 F   0  0  0  0  0  0  0  0  0  0  0  0
   -3.7313    0.5699   29.2352 F   0  0  0  0  0  0  0  0  0  0  0  0
   -3.0053   -0.9464   28.0017 F   0  0  0  0  0  0  0  0  0  0  0  0
  -10.2463    4.2666   27.4066 C   0  0  0  0  0  0  0  0  0  0  0  0
  -11.4993    3.8632   28.0552 C   0  0  0  0  0  0  0  0  0  0  0  0
  -11.6613    3.2236   29.0634 C   0  0  0  0  0  0  0  0  0  0  0  0
  -12.8784    2.7699   29.6816 C   0  0  0  0  0  0  0  0  0  0  0  0
  -14.0204    3.2790   29.0665 C   0  0  0  0  0  0  0  0  0  0  0  0
  -13.9837    4.0385   27.9238 C   0  0  0  0  0  0  0  0  0  0  0  0
  -12.7480    4.4058   27.3853 C   0  0  0  0  0  0  0  0  0  0  0  0
  -10.1492    4.1376   26.0196 C   0  0  0  0  0  0  0  0  0  0  0  0
  -10.3081    2.8557   25.2892 C   0  0  0  0  0  0  0  0  0  0  0  0
  -10.0675    1.8372   25.8898 C   0  0  0  0  0  0  0  0  0  0  0  0
  -10.1242    0.5381   25.2329 C   0  0  0  0  0  0  0  0  0  0  0  0
  -10.2015    0.5548   23.8743 C   0  0  0  0  0  0  0  0  0  0  0  0
  -10.2727    1.6575   23.3202 C   0  0  0  0  0  0  0  0  0  0  0  0
  -10.2862    2.9625   23.8917 C   0  0  0  0  0  0  0  0  0  0  0  0
  1  2  1  0
  2  3  1  6
  2  4  1  0
  1  5  2  3
  5  6  1  0
  3 13  1  0
 11 14  1  0
 14 15  1  0
 14 16  1  0
 14 17  1  0
  4 18  1  0
 18 19  1  0
 18 25  1  0
 25 26  1  0
  6  7  1  0
  7  8  2  0
  8  9  1  0
  9 10  2  0
 10 12  1  0
 12 11  2  0
 11  7  1  0
 19 20  2  0
 20 21  1  0
 21 22  2  0
 22 23  1  0
 23 24  2  0
 24 19  1  0
 26 27  2  0
 27 28  1  0
 28 29  2  0
 29 30  1  0
 30 31  2  0
 31 26  1  0
M  END
$$$$
