No_6532-complexes_sdf/6BKW-FPZ/2024-09-17-14-21-01/
     RDKit          3D

 13 14  0  0  0  0  0  0  0  0999 V2000
   -7.9040    3.9820   27.1177 C   0  0  0  0  0  0  0  0  0  0  0  0
   -8.2057    2.8231   26.8733 C   0  0  0  0  0  0  0  0  0  0  0  0
   -9.2962    2.4021   26.1155 C   0  0  0  0  0  0  0  0  0  0  0  0
   -8.8403    4.9695   26.9329 C   0  0  0  0  0  0  0  0  0  0  0  0
   -9.9203    4.6961   26.0942 C   0  0  0  0  0  0  0  0  0  0  0  0
  -10.1704    3.4287   25.7979 C   0  0  0  0  0  0  0  0  0  0  0  0
   -8.6986    6.4082   27.2490 C   0  0  0  0  0  0  0  0  0  0  0  0
   -7.1823    1.6734   27.2568 C   0  0  0  0  0  0  0  0  0  0  0  0
   -5.9739    2.0669   27.8929 C   0  0  0  0  0  0  0  0  0  0  0  0
   -5.0692    0.9989   28.2558 C   0  0  0  0  0  0  0  0  0  0  0  0
   -5.4340   -0.2985   28.1510 C   0  0  0  0  0  0  0  0  0  0  0  0
   -7.4468    0.3331   27.2288 C   0  0  0  0  0  0  0  0  0  0  0  0
   -6.6423   -0.6070   27.6822 C   0  0  0  0  0  0  0  0  0  0  0  0
  4  7  1  0
  2  8  1  0
  1  2  2  0
  2  3  1  0
  3  6  2  0
  6  5  1  0
  5  4  2  0
  4  1  1  0
  8  9  2  0
  9 10  1  0
 10 11  2  0
 11 13  1  0
 13 12  2  0
 12  8  1  0
M  END
$$$$
