No_621-complexes_sdf/6BKW-FPZ/2024-09-17-14-21-01/
     RDKit          3D

 27 30  0  0  0  0  0  0  0  0999 V2000
   -7.2496    3.8871   27.4508 C   0  0  0  0  0  0  0  0  0  0  0  0
   -7.6161    2.7143   27.1523 C   0  0  0  0  0  0  0  0  0  0  0  0
   -7.1619    1.8631   27.5232 C   0  0  0  0  0  0  0  0  0  0  0  0
   -8.0036    5.1085   27.2100 C   0  0  0  0  0  0  0  0  0  0  0  0
   -9.1035    5.1173   26.6797 C   0  0  0  0  0  0  0  0  0  0  0  0
   -9.6475    3.9397   26.1445 C   0  0  0  0  0  0  0  0  0  0  0  0
   -8.9486    2.7270   26.4505 C   0  0  0  0  0  0  0  0  0  0  0  0
   -7.5683    0.4336   27.3027 C   0  0  0  0  0  0  0  0  0  0  0  0
   -8.8201    0.3305   26.6746 C   0  0  0  0  0  0  0  0  0  0  0  0
   -9.5422    1.4884   26.1944 C   0  0  0  0  0  0  0  0  0  0  0  0
   -7.2835    6.6147   27.9252 Cl  0  0  0  0  0  0  0  0  0  0  0  0
  -10.8300    3.9450   25.3452 C   0  0  0  0  0  0  0  0  0  0  0  0
  -10.7129    4.1083   23.9208 C   0  0  0  0  0  0  0  0  0  0  0  0
  -11.7370    4.1867   23.0470 C   0  0  0  0  0  0  0  0  0  0  0  0
  -12.0636    3.7666   25.8542 C   0  0  0  0  0  0  0  0  0  0  0  0
  -13.2328    3.8930   25.0608 C   0  0  0  0  0  0  0  0  0  0  0  0
  -13.0505    4.1590   23.6941 C   0  0  0  0  0  0  0  0  0  0  0  0
   -9.3762   -0.9979   26.3686 C   0  0  0  0  0  0  0  0  0  0  0  0
  -10.5081   -1.2370   26.6342 N   0  0  0  0  0  0  0  0  0  0  0  0
  -11.1999   -0.5629   27.5096 C   0  0  0  0  0  0  0  0  0  0  0  0
  -12.3993   -0.4314   27.7422 C   0  0  0  0  0  0  0  0  0  0  0  0
  -13.0317    0.4521   28.6605 C   0  0  0  0  0  0  0  0  0  0  0  0
  -12.2521    1.4871   29.1751 C   0  0  0  0  0  0  0  0  0  0  0  0
  -10.9015    1.5887   28.8516 C   0  0  0  0  0  0  0  0  0  0  0  0
  -10.3847    0.6157   28.0260 C   0  0  0  0  0  0  0  0  0  0  0  0
   -9.3244    0.5046   28.3359 O   0  0  0  0  0  0  0  0  0  0  0  0
   -9.0172   -0.8707   28.7832 C   0  0  0  0  0  0  0  0  0  0  0  0
  4 11  1  0
  6 12  1  0
  9 18  1  0
 18 19  1  0
 19 20  1  0
 25 26  1  0
 26 27  1  0
 12 13  2  0
 13 14  1  0
 14 17  2  0
 17 16  1  0
 16 15  2  0
 15 12  1  0
  1  2  2  0
  7  6  2  0
  6  5  1  0
  5  4  2  0
  4  1  1  0
 20 21  2  0
 21 22  1  0
 22 23  2  0
 23 24  1  0
 24 25  2  0
 25 20  1  0
  2  3  1  0
  3  8  2  0
  8  9  1  0
  9 10  2  0
 10  7  1  0
  7  2  1  0
M  END
$$$$
