No_7051-complexes_sdf/6BKW-FPZ/2024-09-17-14-21-01/
     RDKit          3D

 34 39  0  0  0  0  0  0  0  0999 V2000
   -7.2496    3.8871   27.4508 C   0  0  0  0  0  0  0  0  0  0  0  0
   -7.9379    4.9063   27.8518 C   0  0  0  0  0  0  0  0  0  0  0  0
   -7.5112    6.1898   27.6280 C   0  0  0  0  0  0  0  0  0  0  0  0
   -7.4783    2.5435   27.5904 C   0  0  0  0  0  0  0  0  0  0  0  0
   -8.8194    2.2030   27.8879 C   0  0  0  0  0  0  0  0  0  0  0  0
   -9.7541    3.2253   28.0908 C   0  0  0  0  0  0  0  0  0  0  0  0
   -9.3329    4.6048   28.1115 C   0  0  0  0  0  0  0  0  0  0  0  0
   -6.5893    1.4860   27.1789 C   0  0  0  0  0  0  0  0  0  0  0  0
   -5.4440    1.3065   28.0603 C   0  0  0  0  0  0  0  0  0  0  0  0
   -4.5387    0.2323   27.8648 C   0  0  0  0  0  0  0  0  0  0  0  0
   -4.8700   -0.6969   26.9134 C   0  0  0  0  0  0  0  0  0  0  0  0
   -5.9994   -0.5604   26.0994 C   0  0  0  0  0  0  0  0  0  0  0  0
   -6.9017    0.5036   26.3213 C   0  0  0  0  0  0  0  0  0  0  0  0
   -3.3061    0.1558   28.6849 C   0  0  0  0  0  0  0  0  0  0  0  0
   -3.4486   -0.0714   30.1117 C   0  0  0  0  0  0  0  0  0  0  0  0
   -2.6257   -0.9724   30.7950 C   0  0  0  0  0  0  0  0  0  0  0  0
   -2.7512   -0.8822   32.2324 C   0  0  0  0  0  0  0  0  0  0  0  0
   -3.8783   -0.2347   32.8011 C   0  0  0  0  0  0  0  0  0  0  0  0
   -4.7932    0.3250   31.9912 C   0  0  0  0  0  0  0  0  0  0  0  0
   -4.6007    0.4684   30.7044 C   0  0  0  0  0  0  0  0  0  0  0  0
  -11.1294    2.8830   28.4881 C   0  0  0  0  0  0  0  0  0  0  0  0
  -12.0864    3.8576   28.7083 C   0  0  0  0  0  0  0  0  0  0  0  0
  -11.5323    1.5450   28.6614 C   0  0  0  0  0  0  0  0  0  0  0  0
  -13.2561    3.7568   28.1055 C   0  0  0  0  0  0  0  0  0  0  0  0
  -12.9032    1.2703   28.4164 C   0  0  0  0  0  0  0  0  0  0  0  0
  -14.2530    4.8620   28.1142 C   0  0  0  0  0  0  0  0  0  0  0  0
  -13.8519    2.4236   27.9991 C   0  0  0  0  0  0  0  0  0  0  0  0
  -15.3226    5.1913   28.3186 C   0  0  0  0  0  0  0  0  0  0  0  0
  -16.0369    5.9667   28.3892 C   0  0  0  0  0  0  0  0  0  0  0  0
  -17.4067    6.0225   28.6390 C   0  0  0  0  0  0  0  0  0  0  0  0
  -17.9618    4.8156   28.9198 C   0  0  0  0  0  0  0  0  0  0  0  0
  -17.2296    3.7205   28.8657 C   0  0  0  0  0  0  0  0  0  0  0  0
  -15.9078    3.8155   28.5849 C   0  0  0  0  0  0  0  0  0  0  0  0
  -15.0342    2.6061   28.4875 C   0  0  0  0  0  0  0  0  0  0  0  0
  4  8  1  0
 10 14  1  0
 14 15  1  0
  6 21  1  0
  3  2  1  0
 15 16  2  0
 16 17  1  0
 17 18  2  0
 18 19  1  0
 19 20  2  0
 20 15  1  0
 24 26  2  0
 26 28  1  0
 33 34  1  0
 34 27  2  0
  1  2  2  0
  2  7  1  0
  7  6  2  0
  6  5  1  0
  5  4  2  0
  4  1  1  0
 21 22  2  0
 22 24  1  0
 24 27  1  0
 27 25  1  0
 25 23  2  0
 23 21  1  0
 28 29  2  0
 29 30  1  0
 30 31  2  0
 31 32  1  0
 32 33  2  0
 33 28  1  0
  8  9  2  0
  9 10  1  0
 10 11  2  0
 11 12  1  0
 12 13  2  0
 13  8  1  0
M  END
$$$$
