No_7552-complexes_sdf/6BKW-FPZ/2024-09-17-14-21-01/
     RDKit          3D

 28 31  0  0  0  0  0  0  0  0999 V2000
   -7.7129    4.2099   27.0854 C   0  0  0  0  0  0  0  0  0  0  0  0
   -7.7814    5.1722   27.8972 C   0  0  0  0  0  0  0  0  0  0  0  0
   -8.8998    3.8713   26.3707 C   0  0  0  0  0  0  0  0  0  0  0  0
   -8.9563    2.6796   25.5490 C   0  0  0  0  0  0  0  0  0  0  0  0
   -8.8131    6.1334   27.9344 C   0  0  0  0  0  0  0  0  0  0  0  0
   -9.9804    5.8121   27.1929 C   0  0  0  0  0  0  0  0  0  0  0  0
   -9.9861    4.6836   26.4532 C   0  0  0  0  0  0  0  0  0  0  0  0
   -9.7347    1.7154   26.0600 C   0  0  0  0  0  0  0  0  0  0  0  0
   -9.5396    0.7709   26.3463 C   0  0  0  0  0  0  0  0  0  0  0  0
  -10.4599   -0.3006   26.9322 C   0  0  0  0  0  0  0  0  0  0  0  0
  -11.7658    0.1628   27.1172 C   0  0  0  0  0  0  0  0  0  0  0  0
  -12.0717    1.4120   26.8090 C   0  0  0  0  0  0  0  0  0  0  0  0
  -11.1695    2.3105   26.3348 C   0  0  0  0  0  0  0  0  0  0  0  0
   -8.1203    0.0632   26.1897 C   0  0  0  0  0  0  0  0  0  0  0  0
   -7.6686   -0.7095   27.0132 C   0  0  0  0  0  0  0  0  0  0  0  0
   -8.6147   -1.6999   27.6643 C   0  0  0  0  0  0  0  0  0  0  0  0
   -9.9037   -1.2981   27.8227 C   0  0  0  0  0  0  0  0  0  0  0  0
   -6.6927    5.5912   28.6390 F   0  0  0  0  0  0  0  0  0  0  0  0
   -6.2261   -1.2332   26.8955 C   0  0  2  0  0  0  0  0  0  0  0  0
   -5.4362   -0.5184   27.7295 C   0  0  0  0  0  0  0  0  0  0  0  0
   -4.1144   -0.3612   27.5126 C   0  0  0  0  0  0  0  0  0  0  0  0
   -3.2435    0.5465   28.2615 C   0  0  0  0  0  0  0  0  0  0  0  0
   -3.8382    1.1175   29.4347 C   0  0  0  0  0  0  0  0  0  0  0  0
   -5.1889    0.8205   29.7312 C   0  0  0  0  0  0  0  0  0  0  0  0
   -5.9258    0.1007   28.9113 C   0  0  0  0  0  0  0  0  0  0  0  0
   -5.8299   -1.1323   25.4533 C   0  0  0  0  0  0  0  0  0  0  0  0
   -6.1298   -2.7458   27.3637 C   0  0  0  0  0  0  0  0  0  0  0  0
   -5.5146   -3.5837   26.4671 C   0  0  0  0  0  0  0  0  0  0  0  0
  3  4  1  0
  4  8  1  0
  2 18  1  0
 15 19  1  0
 19 20  1  0
 19 26  1  6
 19 27  1  0
 27 28  1  0
  8  9  2  0
 10 11  2  0
 11 12  1  0
 12 13  2  0
 13  8  1  0
  1  2  2  0
  2  5  1  0
  5  6  2  0
  6  7  1  0
  7  3  2  0
  3  1  1  0
 20 21  2  0
 21 22  1  0
 22 23  2  0
 23 24  1  0
 24 25  2  0
 25 20  1  0
  9 10  1  0
 10 17  1  0
 17 16  2  0
 16 15  1  0
 15 14  2  0
 14  9  1  0
M  END
$$$$
