No_7217-complexes_sdf/6BKW-FPZ/2024-09-17-14-21-01/
     RDKit          3D

 19 20  0  0  0  0  0  0  0  0999 V2000
   -7.2496    3.8871   27.4508 C   0  0  0  0  0  0  0  0  0  0  0  0
   -7.6161    2.7143   27.1523 C   0  0  0  0  0  0  0  0  0  0  0  0
   -8.8302    2.4659   26.5056 C   0  0  0  0  0  0  0  0  0  0  0  0
   -8.1584    5.0089   27.3234 C   0  0  0  0  0  0  0  0  0  0  0  0
   -9.3788    4.7965   26.7695 C   0  0  0  0  0  0  0  0  0  0  0  0
   -9.7028    3.5649   26.3276 C   0  0  0  0  0  0  0  0  0  0  0  0
   -6.7803    1.6411   27.3559 N   0  0  0  0  0  0  0  0  0  0  0  0
   -5.6034    1.7594   28.0457 C   0  0  0  0  0  0  0  0  0  0  0  0
   -4.7914    0.5022   28.2252 C   0  0  2  0  0  0  0  0  0  0  0  0
   -5.4143   -0.6477   27.9328 C   0  0  0  0  0  0  0  0  0  0  0  0
   -7.1814    0.2543   27.0251 C   0  0  0  0  0  0  0  0  0  0  0  0
   -6.5155   -0.7438   27.3633 N   0  0  0  0  0  0  0  0  0  0  0  0
   -7.7170    6.3736   27.7941 C   0  0  0  0  0  0  0  0  0  0  0  0
   -3.5365    0.5048   28.9278 C   0  0  2  0  0  0  0  0  0  0  0  0
   -3.1233    1.5866   29.4849 F   0  0  0  0  0  0  0  0  0  0  0  0
   -2.6883   -0.5838   28.8585 C   0  0  0  0  0  0  0  0  0  0  0  0
   -2.8491   -1.6381   28.5755 N   0  0  0  0  0  0  0  0  0  0  0  0
   -8.4462    7.4075   27.2609 N   0  0  0  0  0  0  0  0  0  0  0  0
   -2.2007   -2.7088   28.6283 C   0  0  0  0  0  0  0  0  0  0  0  0
  2  7  1  0
  7  8  1  0
  9 10  1  1
  7 11  1  0
 10 12  1  0
  4 13  1  0
  9 14  1  0
 14 15  1  6
 14 16  1  0
 16 17  1  0
 13 18  1  0
 17 19  1  0
  8  9  1  0
 12 11  1  0
  1  2  2  0
  2  3  1  0
  3  6  2  0
  6  5  1  0
  5  4  2  0
  4  1  1  0
M  END
$$$$
