No_7709-complexes_sdf/6BKW-FPZ/2024-09-17-14-21-01/
     RDKit          3D

 23 25  0  0  0  0  0  0  0  0999 V2000
   -7.2496    3.8871   27.4508 C   0  0  0  0  0  0  0  0  0  0  0  0
   -7.6161    2.7143   27.1523 C   0  0  0  0  0  0  0  0  0  0  0  0
   -8.6212    2.2239   26.4073 C   0  0  0  0  0  0  0  0  0  0  0  0
   -8.2540    4.9237   27.1711 C   0  0  0  0  0  0  0  0  0  0  0  0
   -9.3729    4.5806   26.4432 C   0  0  0  0  0  0  0  0  0  0  0  0
   -9.5830    3.2969   26.1026 C   0  0  0  0  0  0  0  0  0  0  0  0
   -8.1546    6.3411   27.5271 C   0  0  0  0  0  0  0  0  0  0  0  0
   -8.4730    7.2371   26.3527 Br  0  0  0  0  0  0  0  0  0  0  0  0
   -8.8620    0.8786   26.0666 C   0  0  0  0  0  0  0  0  0  0  0  0
   -9.2310    0.5442   24.9589 C   0  0  0  0  0  0  0  0  0  0  0  0
   -9.4189   -0.8509   24.5475 C   0  0  0  0  0  0  0  0  0  0  0  0
   -9.1693   -1.8070   25.4998 C   0  0  0  0  0  0  0  0  0  0  0  0
   -8.5414   -0.2457   26.9829 C   0  0  0  0  0  0  0  0  0  0  0  0
   -8.7263   -1.4597   26.7755 C   0  0  0  0  0  0  0  0  0  0  0  0
   -8.4738   -2.6951   27.9292 Cl  0  0  0  0  0  0  0  0  0  0  0  0
   -6.2591    4.2473   28.2320 F   0  0  0  0  0  0  0  0  0  0  0  0
   -9.8725   -1.1725   23.1948 C   0  0  0  0  0  0  0  0  0  0  0  0
  -10.7256   -0.7758   22.7141 C   0  0  0  0  0  0  0  0  0  0  0  0
  -11.6393    0.2228   23.3470 C   0  0  0  0  0  0  0  0  0  0  0  0
  -12.6963    0.5296   22.7525 C   0  0  0  0  0  0  0  0  0  0  0  0
  -12.9585    0.1839   21.4318 C   0  0  0  0  0  0  0  0  0  0  0  0
  -12.1986   -0.6625   20.7317 C   0  0  0  0  0  0  0  0  0  0  0  0
  -11.0874   -1.1328   21.3275 C   0  0  0  0  0  0  0  0  0  0  0  0
  4  7  1  0
  7  8  1  0
  3  9  1  0
 14 15  1  0
  1 16  1  0
 11 17  1  0
 17 18  1  0
 18 19  2  0
 19 20  1  0
 20 21  2  0
 21 22  1  0
 22 23  2  0
 23 18  1  0
  1  2  2  0
  2  3  1  0
  3  6  2  0
  6  5  1  0
  5  4  2  0
  4  1  1  0
  9 10  2  0
 10 11  1  0
 11 12  2  0
 12 14  1  0
 14 13  2  0
 13  9  1  0
M  END
$$$$
