No_7093-complexes_sdf/6BKW-FPZ/2024-09-17-14-21-01/
     RDKit          3D

 40 44  0  0  0  0  0  0  0  0999 V2000
   -7.9040    3.9820   27.1177 C   0  0  0  0  0  0  0  0  0  0  0  0
   -9.0711    4.3164   27.0630 C   0  0  0  0  0  0  0  0  0  0  0  0
   -9.8698    3.9665   25.9494 C   0  0  0  0  0  0  0  0  0  0  0  0
   -7.4981    2.6202   26.7684 C   0  0  0  0  0  0  0  0  0  0  0  0
  -10.9947    4.6129   25.6427 C   0  0  0  0  0  0  0  0  0  0  0  0
   -8.3935    1.9487   25.9364 C   0  0  0  0  0  0  0  0  0  0  0  0
   -9.5894    2.6649   25.4064 C   0  0  0  0  0  0  0  0  0  0  0  0
   -6.3260    1.9634   27.2961 C   0  0  0  0  0  0  0  0  0  0  0  0
   -6.0738    1.1543   27.9684 N   0  0  0  0  0  0  0  0  0  0  0  0
   -4.7303    0.8543   28.3685 C   0  0  0  0  0  0  0  0  0  0  0  0
   -4.4701   -0.1518   29.2005 N   0  0  0  0  0  0  0  0  0  0  0  0
   -3.8673    1.7379   28.3205 O   0  0  0  0  0  0  0  0  0  0  0  0
   -3.2295   -0.4132   29.8650 C   0  0  0  0  0  0  0  0  0  0  0  0
   -2.4639   -1.4270   29.2336 C   0  0  0  0  0  0  0  0  0  0  0  0
   -2.1672   -1.2976   27.9306 C   0  0  0  0  0  0  0  0  0  0  0  0
   -3.1011   -1.7052   27.1122 C   0  0  0  0  0  0  0  0  0  0  0  0
   -3.1319   -2.8401   26.8162 C   0  0  0  0  0  0  0  0  0  0  0  0
   -4.1402   -3.3943   25.7825 C   0  0  0  0  0  0  0  0  0  0  0  0
   -4.9909   -2.4893   25.1720 C   0  0  0  0  0  0  0  0  0  0  0  0
   -4.8528   -1.0948   25.4520 C   0  0  0  0  0  0  0  0  0  0  0  0
   -3.9443   -0.6910   26.3505 C   0  0  0  0  0  0  0  0  0  0  0  0
   -5.4656   -1.2148   29.4187 C   0  0  0  0  0  0  0  0  0  0  0  0
   -5.5112   -1.7836   30.6768 C   0  0  0  0  0  0  0  0  0  0  0  0
   -6.6150   -2.5174   31.0709 C   0  0  0  0  0  0  0  0  0  0  0  0
   -7.6736   -2.6840   30.1321 C   0  0  0  0  0  0  0  0  0  0  0  0
   -8.8121   -3.3686   30.4396 C   0  0  0  0  0  0  0  0  0  0  0  0
   -7.5783   -2.1496   28.8110 C   0  0  0  0  0  0  0  0  0  0  0  0
   -6.4610   -1.3638   28.5541 C   0  0  0  0  0  0  0  0  0  0  0  0
   -8.9966   -4.0554   31.3963 O   0  0  0  0  0  0  0  0  0  0  0  0
   -9.9949   -2.9298   29.8179 N   0  0  0  0  0  0  0  0  0  0  0  0
  -11.3289   -3.3802   30.1672 C   0  0  0  0  0  0  0  0  0  0  0  0
  -12.0896   -2.9191   29.6586 C   0  0  0  0  0  0  0  0  0  0  0  0
  -13.5402   -3.1516   29.9487 C   0  0  0  0  0  0  0  0  0  0  0  0
  -13.7627   -4.1086   30.9718 C   0  0  0  0  0  0  0  0  0  0  0  0
  -12.7087   -4.6643   31.5795 C   0  0  0  0  0  0  0  0  0  0  0  0
  -11.4426   -4.2897   31.2840 C   0  0  0  0  0  0  0  0  0  0  0  0
  -10.4087    2.0514   24.5103 C   0  0  0  0  0  0  0  0  0  0  0  0
  -11.0533    2.8540   23.6038 C   0  0  0  0  0  0  0  0  0  0  0  0
  -11.6564    4.1665   24.3308 C   0  0  0  0  0  0  0  0  0  0  0  0
   -7.1007    4.4977   28.1511 F   0  0  0  0  0  0  0  0  0  0  0  0
  4  8  1  0
  8  9  1  0
  9 10  1  0
 10 11  1  0
 10 12  2  0
 11 13  1  0
 13 14  1  0
 14 15  1  0
 15 16  1  0
 11 22  1  0
 25 26  1  0
 26 29  2  0
 26 30  1  0
 30 31  1  0
  1 40  1  0
  3  5  2  0
  5 39  1  0
 39 38  2  0
 38 37  1  0
 37  7  2  0
 22 23  2  0
 23 24  1  0
 24 25  2  0
 25 27  1  0
 27 28  2  0
 28 22  1  0
 31 32  2  0
 32 33  1  0
 33 34  2  0
 34 35  1  0
 35 36  2  0
 36 31  1  0
  1  2  2  0
  2  3  1  0
  3  7  1  0
  7  6  1  0
  6  4  2  0
  4  1  1  0
 16 17  2  0
 17 18  1  0
 18 19  2  0
 19 20  1  0
 20 21  2  0
 21 16  1  0
M  END
$$$$
