No_7966-complexes_sdf/6BKW-FPZ/2024-09-17-14-21-01/
     RDKit          3D

 29 32  0  0  0  0  0  0  0  0999 V2000
   -7.9040    3.9820   27.1177 C   0  0  0  0  0  0  0  0  0  0  0  0
   -7.8663    4.8694   27.9238 C   0  0  0  0  0  0  0  0  0  0  0  0
   -9.0491    3.8523   26.2542 C   0  0  0  0  0  0  0  0  0  0  0  0
   -8.7661    5.9491   27.9690 C   0  0  0  0  0  0  0  0  0  0  0  0
   -9.9295    4.8502   26.2323 C   0  0  0  0  0  0  0  0  0  0  0  0
   -9.8077    5.9288   27.0933 C   0  0  0  0  0  0  0  0  0  0  0  0
   -6.8002    2.6256   27.2024 Cl  0  0  0  0  0  0  0  0  0  0  0  0
   -9.1191    2.6984   25.2948 C   0  0  0  0  0  0  0  0  0  0  0  0
  -10.1024    2.8266   24.2781 C   0  0  0  0  0  0  0  0  0  0  0  0
  -10.3076    1.6856   23.4965 C   0  0  0  0  0  0  0  0  0  0  0  0
   -9.4500    0.5344   23.6353 C   0  0  0  0  0  0  0  0  0  0  0  0
   -8.5241    0.4953   24.6469 C   0  0  0  0  0  0  0  0  0  0  0  0
   -8.3514    1.5275   25.4862 C   0  0  0  0  0  0  0  0  0  0  0  0
   -7.7219   -0.7221   24.7538 C   0  0  0  0  0  0  0  0  0  0  0  0
   -6.8610   -0.9301   23.9625 O   0  0  0  0  0  0  0  0  0  0  0  0
   -7.8283   -1.4438   25.8182 O   0  0  0  0  0  0  0  0  0  0  0  0
  -11.2442    1.8105   22.3930 C   0  0  2  0  0  0  0  0  0  0  0  0
  -12.2058    1.1799   22.2557 C   0  0  0  0  0  0  0  0  0  0  0  0
  -12.6382    0.2624   23.3318 C   0  0  0  0  0  0  0  0  0  0  0  0
  -13.8692   -0.5273   23.1995 C   0  0  0  0  0  0  0  0  0  0  0  0
  -14.5354   -0.3901   22.0064 C   0  0  0  0  0  0  0  0  0  0  0  0
  -14.1881    0.3869   20.9863 C   0  0  0  0  0  0  0  0  0  0  0  0
  -13.0504    1.1968   21.0925 C   0  0  0  0  0  0  0  0  0  0  0  0
  -10.6463    2.5566   21.3362 N   0  0  0  0  0  0  0  0  0  0  0  0
  -10.7561    3.9249   21.4277 C   0  0  2  0  0  0  0  0  0  0  0  0
  -10.9971    4.6906   22.5661 C   0  0  0  0  0  0  0  0  0  0  0  0
  -11.1952    6.0686   22.5204 C   0  0  0  0  0  0  0  0  0  0  0  0
  -10.9065    4.1345   23.9886 C   0  0  0  0  0  0  0  0  0  0  0  0
  -10.7525    4.4869   20.2410 F   0  0  0  0  0  0  0  0  0  0  0  0
  1  7  1  0
  3  8  1  0
 12 14  1  0
 14 15  2  0
 14 16  1  0
 10 17  1  0
 17 24  1  0
 24 25  1  0
 25 26  1  0
 26 27  2  0
  9 28  1  0
 26 28  1  0
 25 29  1  6
 17 18  1  6
 18 19  2  0
 19 20  1  0
 20 21  2  0
 21 22  1  0
 22 23  2  0
 23 18  1  0
  1  2  2  0
  2  4  1  0
  4  6  2  0
  6  5  1  0
  5  3  2  0
  3  1  1  0
  8  9  2  0
  9 10  1  0
 10 11  2  0
 11 12  1  0
 12 13  2  0
 13  8  1  0
M  END
$$$$
