No_779-complexes_sdf/6BKW-FPZ/2024-09-17-14-21-01/
     RDKit          3D

 15 16  0  0  0  0  0  0  0  0999 V2000
   -7.7129    4.2099   27.0854 C   0  0  0  0  0  0  0  0  0  0  0  0
   -8.2112    3.0637   26.9225 C   0  0  0  0  0  0  0  0  0  0  0  0
   -8.4224    5.2106   27.8516 C   0  0  0  0  0  0  0  0  0  0  0  0
   -7.4917    1.9381   26.3986 C   0  0  0  0  0  0  0  0  0  0  0  0
   -9.7695    5.0306   28.1322 C   0  0  0  0  0  0  0  0  0  0  0  0
   -9.5975    2.7583   27.3362 C   0  0  0  0  0  0  0  0  0  0  0  0
  -10.3362    3.8114   27.9177 C   0  0  0  0  0  0  0  0  0  0  0  0
   -8.0869    0.9114   25.7506 C   0  0  0  0  0  0  0  0  0  0  0  0
   -7.3534   -0.1161   25.3162 C   0  0  0  0  0  0  0  0  0  0  0  0
   -7.8731   -1.0077   24.3498 C   0  0  0  0  0  0  0  0  0  0  0  0
   -7.1524   -1.9409   23.7947 C   0  0  0  0  0  0  0  0  0  0  0  0
   -7.6686   -2.7787   22.7657 C   0  0  0  0  0  0  0  0  0  0  0  0
   -8.9735   -2.5590   22.2971 C   0  0  0  0  0  0  0  0  0  0  0  0
   -9.6857   -1.5444   22.8277 C   0  0  0  0  0  0  0  0  0  0  0  0
   -9.1804   -0.7123   23.7941 C   0  0  0  0  0  0  0  0  0  0  0  0
  2  4  1  0
  4  8  2  3
  8  9  1  0
  9 10  1  0
  1  2  2  0
  2  6  1  0
  6  7  2  0
  7  5  1  0
  5  3  2  0
  3  1  1  0
 10 11  2  0
 11 12  1  0
 12 13  2  0
 13 14  1  0
 14 15  2  0
 15 10  1  0
M  END
$$$$
