No_7806-complexes_sdf/6BKW-FPZ/2024-09-17-14-21-01/
     RDKit          3D

 16 16  0  0  0  0  0  0  0  0999 V2000
   -7.9040    3.9820   27.1177 C   0  0  0  0  0  0  0  0  0  0  0  0
   -8.2057    2.8231   26.8733 C   0  0  0  0  0  0  0  0  0  0  0  0
   -9.2962    2.4021   26.1155 C   0  0  0  0  0  0  0  0  0  0  0  0
   -8.7358    5.0662   26.5917 C   0  0  0  0  0  0  0  0  0  0  0  0
   -8.4603    6.4492   26.8781 C   0  0  0  0  0  0  0  0  0  0  0  0
  -10.1146    3.3815   25.6105 C   0  0  0  0  0  0  0  0  0  0  0  0
   -9.8194    4.7235   25.8263 C   0  0  0  0  0  0  0  0  0  0  0  0
   -8.1554    6.8470   28.2069 C   0  0  0  0  0  0  0  0  0  0  0  0
   -8.5057    7.4229   25.8575 C   0  0  0  0  0  0  0  0  0  0  0  0
   -7.3140    1.6672   27.4296 C   0  0  2  0  0  0  0  0  0  0  0  0
   -6.0006    1.9683   27.8516 C   0  0  0  0  0  0  0  0  0  0  0  0
   -5.1691    0.9050   28.3170 C   0  0  0  0  0  0  0  0  0  0  0  0
   -5.6359   -0.3761   28.3198 C   0  0  0  0  0  0  0  0  0  0  0  0
   -7.6643    0.3247   27.4197 C   0  0  0  0  0  0  0  0  0  0  0  0
   -9.0234    0.0446   27.0388 C   0  0  0  0  0  0  0  0  0  0  0  0
   -6.8766   -0.6353   27.9398 C   0  0  0  0  0  0  0  0  0  0  0  0
  4  5  1  0
  5  8  2  0
  5  9  1  0
  2 10  1  0
 10 11  1  0
 11 12  2  3
 12 13  1  0
 10 14  1  6
 14 15  2  0
 13 16  2  0
  1  2  2  0
  2  3  1  0
  3  6  2  0
  6  7  1  0
  7  4  2  0
  4  1  1  0
M  END
$$$$
