No_7004-complexes_sdf/6BKW-FPZ/2024-09-17-14-21-01/
     RDKit          3D

 27 30  0  0  0  0  0  0  0  0999 V2000
   -7.9040    3.9820   27.1177 C   0  0  0  0  0  0  0  0  0  0  0  0
   -8.2057    2.8231   26.8733 C   0  0  0  0  0  0  0  0  0  0  0  0
   -9.2962    2.4021   26.1155 C   0  0  0  0  0  0  0  0  0  0  0  0
   -6.8682    4.5169   28.0704 C   0  0  0  0  0  0  0  0  0  0  0  0
  -10.0578    3.3688   25.5520 C   0  0  0  0  0  0  0  0  0  0  0  0
   -9.6997    4.7480   25.6981 C   0  0  0  0  0  0  0  0  0  0  0  0
   -8.6783    5.1111   26.5262 C   0  0  0  0  0  0  0  0  0  0  0  0
  -11.1704    3.0677   24.6150 C   0  0  0  0  0  0  0  0  0  0  0  0
  -11.2492    3.6669   23.4645 C   0  0  0  0  0  0  0  0  0  0  0  0
  -12.3144    3.4338   22.5189 C   0  0  0  0  0  0  0  0  0  0  0  0
  -13.2668    2.4927   22.8705 C   0  0  0  0  0  0  0  0  0  0  0  0
  -12.1550    2.1651   24.8978 C   0  0  0  0  0  0  0  0  0  0  0  0
  -13.1795    1.9114   24.0857 C   0  0  0  0  0  0  0  0  0  0  0  0
   -5.8366    3.7367   28.1713 F   0  0  0  0  0  0  0  0  0  0  0  0
   -7.3854    4.6966   29.2987 F   0  0  0  0  0  0  0  0  0  0  0  0
   -6.4551    5.7263   27.6780 F   0  0  0  0  0  0  0  0  0  0  0  0
  -14.1561    1.0275   24.3804 F   0  0  0  0  0  0  0  0  0  0  0  0
   -9.2716    1.0032   25.8415 C   0  0  0  0  0  0  0  0  0  0  0  0
   -8.3247    0.2109   26.0872 C   0  0  0  0  0  0  0  0  0  0  0  0
   -8.3595   -1.2468   25.8843 C   0  0  0  0  0  0  0  0  0  0  0  0
   -9.5054   -1.6832   25.2394 C   0  0  0  0  0  0  0  0  0  0  0  0
  -10.5133   -0.8414   24.8433 C   0  0  0  0  0  0  0  0  0  0  0  0
  -10.3915    0.4602   25.1689 C   0  0  0  0  0  0  0  0  0  0  0  0
  -11.4788    1.3367   24.9625 N   0  0  0  0  0  0  0  0  0  0  0  0
  -12.2788    0.1795   25.1620 C   0  0  0  0  0  0  0  0  0  0  0  0
  -12.6112    0.1864   26.7311 C   0  0  0  0  0  0  0  0  0  0  0  0
  -12.7840   -0.6821   24.4023 C   0  0  0  0  0  0  0  0  0  0  0  0
  1  4  1  0
  5  8  1  0
  4 14  1  0
  4 15  1  0
  4 16  1  0
 13 17  1  0
  3 18  1  0
 12 24  1  0
 23 24  1  0
 24 25  1  0
 25 26  1  0
 25 27  1  0
 18 19  2  0
 19 20  1  0
 20 21  2  0
 21 22  1  0
 22 23  2  0
 23 18  1  0
  8  9  2  0
  9 10  1  0
 10 11  2  0
 11 13  1  0
 13 12  2  0
 12  8  1  0
  1  2  2  0
  2  3  1  0
  3  5  2  0
  5  6  1  0
  6  7  2  0
  7  1  1  0
M  END
$$$$
