No_7008-complexes_sdf/6BKW-FPZ/2024-09-17-14-21-01/
     RDKit          3D

 31 34  0  0  0  0  0  0  0  0999 V2000
   -7.2496    3.8871   27.4508 C   0  0  0  0  0  0  0  0  0  0  0  0
   -8.5096    4.0291   27.2770 C   0  0  0  0  0  0  0  0  0  0  0  0
   -9.2677    5.1714   27.5773 C   0  0  0  0  0  0  0  0  0  0  0  0
   -9.2765    2.8248   26.8371 C   0  0  0  0  0  0  0  0  0  0  0  0
   -8.6731    1.7312   26.5464 C   0  0  0  0  0  0  0  0  0  0  0  0
   -6.5350    2.6522   27.3724 C   0  0  0  0  0  0  0  0  0  0  0  0
   -7.2308    1.5739   26.9609 C   0  0  0  0  0  0  0  0  0  0  0  0
   -8.5553    6.4127   27.5972 C   0  0  0  0  0  0  0  0  0  0  0  0
  -10.5852    5.2492   26.8062 C   0  0  0  0  0  0  0  0  0  0  0  0
   -6.3976    0.3892   26.7149 C   0  0  0  0  0  0  0  0  0  0  0  0
   -5.4793    0.1376   27.7054 C   0  0  0  0  0  0  0  0  0  0  0  0
   -5.6493   -0.6248   28.8261 C   0  0  0  0  0  0  0  0  0  0  0  0
   -4.6089   -0.7529   29.8344 C   0  0  0  0  0  0  0  0  0  0  0  0
   -3.4490    0.0073   29.6709 C   0  0  0  0  0  0  0  0  0  0  0  0
   -4.2107    0.9089   27.7644 C   0  0  0  0  0  0  0  0  0  0  0  0
   -3.2436    0.7749   28.6655 N   0  0  0  0  0  0  0  0  0  0  0  0
   -4.8957   -1.6080   30.9793 C   0  0  0  0  0  0  0  0  0  0  0  0
   -4.4607   -1.3200   32.1257 C   0  0  0  0  0  0  0  0  0  0  0  0
   -4.7633   -2.0795   33.3007 C   0  0  0  0  0  0  0  0  0  0  0  0
   -5.6036   -3.1760   33.1279 C   0  0  0  0  0  0  0  0  0  0  0  0
   -5.7731   -2.6713   30.9456 C   0  0  0  0  0  0  0  0  0  0  0  0
   -6.1287   -3.4298   31.9423 C   0  0  0  0  0  0  0  0  0  0  0  0
   -9.2649    0.5173   26.0674 C   0  0  0  0  0  0  0  0  0  0  0  0
   -9.9784   -0.1484   26.7203 C   0  0  0  0  0  0  0  0  0  0  0  0
  -10.3606   -1.4367   26.5785 C   0  0  0  0  0  0  0  0  0  0  0  0
   -9.1567    0.3071   24.6293 C   0  0  0  0  0  0  0  0  0  0  0  0
   -9.5199   -0.9809   24.2238 C   0  0  0  0  0  0  0  0  0  0  0  0
  -10.2656   -1.7916   25.1510 C   0  0  0  0  0  0  0  0  0  0  0  0
  -10.7267   -3.0878   24.6867 C   0  0  0  0  0  0  0  0  0  0  0  0
  -11.1882   -3.3532   23.7597 C   0  0  0  0  0  0  0  0  0  0  0  0
  -11.6696   -4.6993   23.3357 C   0  0  0  0  0  0  0  0  0  0  0  0
  2  3  1  0
  3  8  1  0
  3  9  1  0
  7 10  1  0
 10 11  1  0
 13 17  1  0
  5 23  1  0
 28 29  1  0
 29 30  2  3
 30 31  1  0
  1  2  2  0
  2  4  1  0
  4  5  2  0
  5  7  1  0
  7  6  2  0
  6  1  1  0
 17 18  2  0
 18 19  1  0
 19 20  2  0
 20 22  1  0
 22 21  2  0
 21 17  1  0
 11 12  2  0
 12 13  1  0
 13 14  2  0
 14 16  1  0
 16 15  2  0
 15 11  1  0
 23 24  2  0
 24 25  1  0
 25 28  2  0
 28 27  1  0
 27 26  2  0
 26 23  1  0
M  END
$$$$
