No_7058-complexes_sdf/6BKW-FPZ/2024-09-17-14-21-01/
     RDKit          3D

 27 30  0  0  0  0  0  0  0  0999 V2000
   -7.2496    3.8871   27.4508 C   0  0  0  0  0  0  0  0  0  0  0  0
   -7.9379    4.9063   27.8518 C   0  0  0  0  0  0  0  0  0  0  0  0
   -7.5112    6.1898   27.6280 C   0  0  0  0  0  0  0  0  0  0  0  0
   -9.3085    4.6933   28.2930 C   0  0  0  0  0  0  0  0  0  0  0  0
   -7.7804    2.5137   27.6845 C   0  0  0  0  0  0  0  0  0  0  0  0
   -9.1546    2.3397   27.7350 C   0  0  0  0  0  0  0  0  0  0  0  0
   -9.8867    3.4718   28.2310 C   0  0  0  0  0  0  0  0  0  0  0  0
   -6.8137    1.4770   27.0886 C   0  0  0  0  0  0  0  0  0  0  0  0
   -6.1689    0.8948   27.8291 C   0  0  0  0  0  0  0  0  0  0  0  0
   -5.2728   -0.0930   27.7315 C   0  0  0  0  0  0  0  0  0  0  0  0
   -5.2526   -0.8698   26.5678 C   0  0  0  0  0  0  0  0  0  0  0  0
   -6.2511   -0.4034   25.6069 C   0  0  0  0  0  0  0  0  0  0  0  0
   -7.0957    0.7175   25.8761 C   0  0  0  0  0  0  0  0  0  0  0  0
   -4.2497   -0.4839   28.8061 C   0  0  0  0  0  0  0  0  0  0  0  0
   -4.4797   -0.0344   30.0258 C   0  0  0  0  0  0  0  0  0  0  0  0
   -3.5065   -0.3335   31.0738 C   0  0  0  0  0  0  0  0  0  0  0  0
   -2.3826   -1.0895   30.7555 C   0  0  0  0  0  0  0  0  0  0  0  0
   -2.1524   -1.4378   29.4645 C   0  0  0  0  0  0  0  0  0  0  0  0
   -3.0513   -1.1273   28.4708 C   0  0  0  0  0  0  0  0  0  0  0  0
  -11.3075    3.2668   28.6506 C   0  0  0  0  0  0  0  0  0  0  0  0
  -12.0601    4.2373   28.5724 N   0  0  0  0  0  0  0  0  0  0  0  0
  -13.2878    4.0959   28.2306 C   0  0  0  0  0  0  0  0  0  0  0  0
  -14.1398    3.4723   28.7704 C   0  0  0  0  0  0  0  0  0  0  0  0
  -15.4884    3.2713   28.3140 C   0  0  0  0  0  0  0  0  0  0  0  0
  -15.8928    4.0934   27.2429 C   0  0  0  0  0  0  0  0  0  0  0  0
  -14.9952    4.9422   26.6091 C   0  0  0  0  0  0  0  0  0  0  0  0
  -13.6796    5.0291   27.0478 C   0  0  0  0  0  0  0  0  0  0  0  0
  2  3  1  0
  5  8  1  0
 10 14  1  0
  7 20  1  0
 20 21  2  3
 21 22  1  0
 14 15  2  0
 15 16  1  0
 16 17  2  0
 17 18  1  0
 18 19  2  0
 19 14  1  0
 22 23  2  0
 23 24  1  0
 24 25  2  0
 25 26  1  0
 26 27  2  0
 27 22  1  0
  1  2  2  0
  2  4  1  0
  4  7  2  0
  7  6  1  0
  6  5  2  0
  5  1  1  0
  8  9  2  0
  9 10  1  0
 10 11  2  0
 11 12  1  0
 12 13  2  0
 13  8  1  0
M  END
$$$$
