No_7579-complexes_sdf/6BKW-FPZ/2024-09-17-14-21-01/
     RDKit          3D

 18 20  0  0  0  0  0  0  0  0999 V2000
   -7.7129    4.2099   27.0854 C   0  0  0  0  0  0  0  0  0  0  0  0
   -7.7814    5.1722   27.8972 C   0  0  0  0  0  0  0  0  0  0  0  0
   -8.8776    3.8408   26.3416 C   0  0  0  0  0  0  0  0  0  0  0  0
   -9.9844    4.6492   26.4743 C   0  0  0  0  0  0  0  0  0  0  0  0
   -8.7830    6.1594   27.8870 C   0  0  0  0  0  0  0  0  0  0  0  0
   -9.9269    5.8191   27.1183 C   0  0  0  0  0  0  0  0  0  0  0  0
   -8.8747    2.6048   25.5686 C   0  0  0  0  0  0  0  0  0  0  0  0
   -9.7540    2.4487   24.5323 C   0  0  0  0  0  0  0  0  0  0  0  0
   -9.7547    1.2831   23.7578 C   0  0  0  0  0  0  0  0  0  0  0  0
   -8.7697    0.2861   24.0456 C   0  0  0  0  0  0  0  0  0  0  0  0
   -7.9287    0.4232   25.1168 C   0  0  0  0  0  0  0  0  0  0  0  0
   -7.9412    1.5899   25.9078 C   0  0  0  0  0  0  0  0  0  0  0  0
  -10.6323    1.1526   22.6207 C   0  0  0  0  0  0  0  0  0  0  0  0
  -11.9159    0.8718   22.9514 C   0  0  0  0  0  0  0  0  0  0  0  0
  -12.8607    0.8947   22.0115 C   0  0  0  0  0  0  0  0  0  0  0  0
  -12.4797    1.0714   20.6245 C   0  0  0  0  0  0  0  0  0  0  0  0
  -11.1804    1.3403   20.2651 C   0  0  0  0  0  0  0  0  0  0  0  0
  -10.1803    1.4388   21.2881 C   0  0  0  0  0  0  0  0  0  0  0  0
  3  7  1  0
  9 13  1  0
 13 14  2  0
 14 15  1  0
 15 16  2  0
 16 17  1  0
 17 18  2  0
 18 13  1  0
  1  2  2  0
  2  5  1  0
  5  6  2  0
  6  4  1  0
  4  3  2  0
  3  1  1  0
  7  8  2  0
  8  9  1  0
  9 10  2  0
 10 11  1  0
 11 12  2  0
 12  7  1  0
M  END
$$$$
