No_7188-complexes_sdf/6BKW-FPZ/2024-09-17-14-21-01/
     RDKit          3D

 16 17  0  0  0  0  0  0  0  0999 V2000
   -7.9040    3.9820   27.1177 C   0  0  0  0  0  0  0  0  0  0  0  0
   -8.2057    2.8231   26.8733 C   0  0  0  0  0  0  0  0  0  0  0  0
   -7.0130    4.3706   28.1140 C   0  0  0  0  0  0  0  0  0  0  0  0
   -7.3740    1.7588   27.2586 C   0  0  0  0  0  0  0  0  0  0  0  0
   -6.1366    2.1529   27.9510 C   0  0  0  0  0  0  0  0  0  0  0  0
   -5.9453    3.4605   28.2895 C   0  0  0  0  0  0  0  0  0  0  0  0
   -8.9488    5.1020   26.7851 C   0  0  0  0  0  0  0  0  0  0  0  0
   -9.0220    6.2660   27.5766 C   0  0  0  0  0  0  0  0  0  0  0  0
   -9.5694    4.9878   25.5246 C   0  0  0  0  0  0  0  0  0  0  0  0
   -5.2733    0.9896   28.1759 C   0  0  0  0  0  0  0  0  0  0  0  0
   -5.5855   -0.3011   28.3016 C   0  0  0  0  0  0  0  0  0  0  0  0
   -4.6604   -1.2171   28.6635 C   0  0  0  0  0  0  0  0  0  0  0  0
   -5.0278   -2.5938   28.8449 C   0  0  0  0  0  0  0  0  0  0  0  0
   -6.3858   -2.9044   28.5660 C   0  0  0  0  0  0  0  0  0  0  0  0
   -7.2986   -1.9802   28.1762 C   0  0  0  0  0  0  0  0  0  0  0  0
   -6.9303   -0.6493   28.0682 C   0  0  0  0  0  0  0  0  0  0  0  0
  1  7  1  0
  7  8  2  0
  7  9  1  0
  5 10  1  0
 10 11  1  0
  1  2  2  0
  2  4  1  0
  4  5  2  0
  5  6  1  0
  6  3  2  0
  3  1  1  0
 11 12  2  0
 12 13  1  0
 13 14  2  0
 14 15  1  0
 15 16  2  0
 16 11  1  0
M  END
$$$$
