No_7797-complexes_sdf/6BKW-FPZ/2024-09-17-14-21-01/
     RDKit          3D

 30 33  0  0  0  0  0  0  0  0999 V2000
   -7.9040    3.9820   27.1177 C   0  0  0  0  0  0  0  0  0  0  0  0
   -8.2057    2.8231   26.8733 C   0  0  0  0  0  0  0  0  0  0  0  0
   -7.0130    4.3706   28.1140 C   0  0  0  0  0  0  0  0  0  0  0  0
   -9.3829    2.4374   26.1668 C   0  0  0  0  0  0  0  0  0  0  0  0
  -10.0975    3.4171   25.5988 C   0  0  0  0  0  0  0  0  0  0  0  0
   -9.7335    4.7745   25.7705 C   0  0  0  0  0  0  0  0  0  0  0  0
   -8.7317    5.1107   26.5933 C   0  0  0  0  0  0  0  0  0  0  0  0
   -8.3983    6.4679   26.8933 C   0  0  0  0  0  0  0  0  0  0  0  0
   -7.3346    6.7850   27.7126 C   0  0  0  0  0  0  0  0  0  0  0  0
   -6.7763    5.7820   28.3880 C   0  0  0  0  0  0  0  0  0  0  0  0
   -7.3014    1.7551   27.4316 C   0  0  0  0  0  0  0  0  0  0  0  0
   -7.8263    0.3953   27.3547 C   0  0  0  0  0  0  0  0  0  0  0  0
   -9.7647    1.1090   25.8570 C   0  0  0  0  0  0  0  0  0  0  0  0
   -8.8713    0.0779   26.4923 C   0  0  0  0  0  0  0  0  0  0  0  0
  -11.2104    3.1638   24.6471 C   0  0  0  0  0  0  0  0  0  0  0  0
  -12.4722    3.1068   25.0372 C   0  0  0  0  0  0  0  0  0  0  0  0
  -10.8951    2.8715   23.2902 C   0  0  0  0  0  0  0  0  0  0  0  0
  -11.6495    2.5413   22.3800 C   0  0  0  0  0  0  0  0  0  0  0  0
  -13.4870    2.8639   24.0854 C   0  0  0  0  0  0  0  0  0  0  0  0
  -13.0743    2.6006   22.7458 C   0  0  0  0  0  0  0  0  0  0  0  0
   -6.9816   -0.6818   27.9271 C   0  0  2  0  0  0  0  0  0  0  0  0
   -7.5783   -1.7928   28.4762 C   0  0  0  0  0  0  0  0  0  0  0  0
   -5.5842   -0.5148   28.1311 C   0  0  0  0  0  0  0  0  0  0  0  0
   -4.8493    0.0878   27.5829 C   0  0  0  0  0  0  0  0  0  0  0  0
   -3.3570    0.2153   27.8567 C   0  0  0  0  0  0  0  0  0  0  0  0
   -2.4871    0.9143   27.0084 C   0  0  0  0  0  0  0  0  0  0  0  0
   -1.2766    0.6935   27.0795 N   0  0  0  0  0  0  0  0  0  0  0  0
   -2.9128    1.7228   26.1500 O   0  0  0  0  0  0  0  0  0  0  0  0
   -7.1703   -2.4065   29.5993 C   0  0  0  0  0  0  0  0  0  0  0  0
   -5.7926   -2.2748   29.9158 C   0  0  0  0  0  0  0  0  0  0  0  0
  5 15  1  0
 21 12  1  1
 21 22  1  0
 21 23  1  0
 23 24  2  3
 24 25  1  0
 25 26  1  0
 26 27  1  0
 26 28  2  0
 22 29  2  3
 29 30  1  0
  4 13  2  0
 13 14  1  0
 14 12  2  0
 12 11  1  0
 11  2  2  0
  1  3  2  0
  3 10  1  0
 10  9  2  0
  9  8  1  0
  8  7  2  0
  1  2  1  0
  2  4  1  0
  4  5  1  0
  5  6  2  0
  6  7  1  0
  7  1  1  0
 15 16  2  0
 16 19  1  0
 19 20  2  0
 20 18  1  0
 18 17  2  0
 17 15  1  0
M  END
$$$$
