No_7919-complexes_sdf/6BKW-FPZ/2024-09-17-14-21-01/
     RDKit          3D

  6  5  0  0  0  0  0  0  0  0999 V2000
   -7.9040    3.9820   27.1177 C   0  0  0  0  0  0  0  0  0  0  0  0
   -8.2057    2.8231   26.8733 C   0  0  0  0  0  0  0  0  0  0  0  0
   -8.2891    5.2951   27.4615 C   0  0  0  0  0  0  0  0  0  0  0  0
   -9.7232    5.2947   27.3987 C   0  0  0  0  0  0  0  0  0  0  0  0
   -7.6614    1.6806   26.7185 C   0  0  0  0  0  0  0  0  0  0  0  0
  -10.4200    4.0655   27.2991 C   0  0  0  0  0  0  0  0  0  0  0  0
  1  2  3  0
  1  3  1  0
  3  4  2  3
  2  5  1  0
  4  6  1  0
M  END
$$$$
