No_7333-complexes_sdf/6BKW-FPZ/2024-09-17-14-21-01/
     RDKit          3D

 23 24  0  0  0  0  0  0  0  0999 V2000
   -7.9040    3.9820   27.1177 C   0  0  0  0  0  0  0  0  0  0  0  0
   -9.0711    4.3164   27.0630 C   0  0  0  0  0  0  0  0  0  0  0  0
   -9.5294    5.4517   27.7215 C   0  0  0  0  0  0  0  0  0  0  0  0
   -6.9328    4.7309   27.8881 C   0  0  0  0  0  0  0  0  0  0  0  0
   -7.3377    5.8421   28.5537 C   0  0  0  0  0  0  0  0  0  0  0  0
   -8.6411    6.2609   28.3972 C   0  0  0  0  0  0  0  0  0  0  0  0
  -10.1659    3.5880   26.3758 C   0  0  0  0  0  0  0  0  0  0  0  0
  -11.1593    2.9565   26.8773 C   0  0  0  0  0  0  0  0  0  0  0  0
  -11.2825    2.7931   28.1316 C   0  0  0  0  0  0  0  0  0  0  0  0
  -12.2824    2.0011   28.8669 C   0  0  0  0  0  0  0  0  0  0  0  0
   -9.9414    3.6461   24.8801 C   0  0  0  0  0  0  0  0  0  0  0  0
  -10.6923    3.0498   23.9286 C   0  0  0  0  0  0  0  0  0  0  0  0
  -11.8070    2.4344   24.5866 C   0  0  0  0  0  0  0  0  0  0  0  0
  -12.1043    2.3297   25.9539 C   0  0  0  0  0  0  0  0  0  0  0  0
  -10.4682    3.1872   22.5946 C   0  0  0  0  0  0  0  0  0  0  0  0
  -11.3658    3.0769   21.7708 F   0  0  0  0  0  0  0  0  0  0  0  0
   -9.8968    4.4321   22.2211 F   0  0  0  0  0  0  0  0  0  0  0  0
   -9.4591    2.3439   22.2364 F   0  0  0  0  0  0  0  0  0  0  0  0
  -12.5105    0.7973   28.3855 C   0  0  0  0  0  0  0  0  0  0  0  0
  -12.6027   -0.0996   28.9490 C   0  0  0  0  0  0  0  0  0  0  0  0
  -12.7924   -1.4288   28.3935 C   0  0  0  0  0  0  0  0  0  0  0  0
  -12.8799   -1.4841   27.0398 C   0  0  0  0  0  0  0  0  0  0  0  0
  -12.7978   -0.4027   26.2979 C   0  0  0  0  0  0  0  0  0  0  0  0
  2  7  1  0
  8  9  1  0
  9 10  2  3
 12 15  1  0
 15 16  1  0
 15 17  1  0
 15 18  1  0
 10 19  1  0
 19 20  2  3
 20 21  1  0
 21 22  2  3
 22 23  1  0
  1  2  2  0
  2  3  1  0
  3  6  2  0
  6  5  1  0
  5  4  2  0
  4  1  1  0
  7  8  2  0
  8 14  1  0
 14 13  2  0
 13 12  1  0
 12 11  2  0
 11  7  1  0
M  END
$$$$
