No_7844-complexes_sdf/6BKW-FPZ/2024-09-17-14-21-01/
     RDKit          3D

 20 22  0  0  0  0  0  0  0  0999 V2000
   -7.9040    3.9820   27.1177 C   0  0  0  0  0  0  0  0  0  0  0  0
   -7.8663    4.8694   27.9238 C   0  0  0  0  0  0  0  0  0  0  0  0
   -9.0491    3.8523   26.2542 C   0  0  0  0  0  0  0  0  0  0  0  0
   -8.7661    5.9491   27.9690 C   0  0  0  0  0  0  0  0  0  0  0  0
   -9.9295    4.8502   26.2323 C   0  0  0  0  0  0  0  0  0  0  0  0
   -9.8077    5.9288   27.0933 C   0  0  0  0  0  0  0  0  0  0  0  0
   -9.0726    2.7074   25.3087 C   0  0  0  0  0  0  0  0  0  0  0  0
   -8.6026    1.4628   25.7488 C   0  0  0  0  0  0  0  0  0  0  0  0
   -9.8167    2.8097   24.1154 C   0  0  0  0  0  0  0  0  0  0  0  0
   -8.6113    0.3858   24.8930 C   0  0  0  0  0  0  0  0  0  0  0  0
   -9.8780    1.7126   23.2903 C   0  0  0  0  0  0  0  0  0  0  0  0
   -9.2447    0.5175   23.6633 C   0  0  0  0  0  0  0  0  0  0  0  0
   -9.3733   -0.5012   22.5945 C   0  0  0  0  0  0  0  0  0  0  0  0
  -10.1061   -0.4136   21.5705 C   0  0  0  0  0  0  0  0  0  0  0  0
  -10.7370    0.8749   21.2733 C   0  0  0  0  0  0  0  0  0  0  0  0
  -10.5999    1.9067   22.1019 C   0  0  0  0  0  0  0  0  0  0  0  0
   -7.9392   -0.8445   25.2629 C   0  0  0  0  0  0  0  0  0  0  0  0
   -7.3825   -0.9536   26.2410 N   0  0  0  0  0  0  0  0  0  0  0  0
   -7.7908   -1.3918   27.4134 C   0  0  0  0  0  0  0  0  0  0  0  0
   -6.9855   -1.4154   28.6418 C   0  0  0  0  0  0  0  0  0  0  0  0
  3  7  1  0
 10 17  1  0
 17 18  2  3
 18 19  1  0
 19 20  2  0
 12 13  1  0
 13 14  2  0
 14 15  1  0
 15 16  2  0
 16 11  1  0
  1  2  2  0
  2  4  1  0
  4  6  2  0
  6  5  1  0
  5  3  2  0
  3  1  1  0
  7  8  2  0
  8 10  1  0
 10 12  2  0
 12 11  1  0
 11  9  2  0
  9  7  1  0
M  END
$$$$
