No_7710-complexes_sdf/6BKW-FPZ/2024-09-17-14-21-01/
     RDKit          3D

 22 24  0  0  0  0  0  0  0  0999 V2000
   -7.9040    3.9820   27.1177 C   0  0  0  0  0  0  0  0  0  0  0  0
   -7.8663    4.8694   27.9238 C   0  0  0  0  0  0  0  0  0  0  0  0
   -9.0501    3.8017   26.2617 C   0  0  0  0  0  0  0  0  0  0  0  0
  -10.0189    4.7608   26.3707 C   0  0  0  0  0  0  0  0  0  0  0  0
   -8.6770    5.9780   27.9222 C   0  0  0  0  0  0  0  0  0  0  0  0
   -9.8040    5.8752   27.0958 C   0  0  0  0  0  0  0  0  0  0  0  0
   -9.1518    2.6191   25.4170 C   0  0  0  0  0  0  0  0  0  0  0  0
   -8.6413    1.4242   25.8318 C   0  0  0  0  0  0  0  0  0  0  0  0
   -8.7321    0.3067   25.0180 C   0  0  0  0  0  0  0  0  0  0  0  0
   -9.3519    0.4515   23.7775 C   0  0  0  0  0  0  0  0  0  0  0  0
   -9.7556    2.6898   24.1776 C   0  0  0  0  0  0  0  0  0  0  0  0
   -9.8156    1.6480   23.3533 C   0  0  0  0  0  0  0  0  0  0  0  0
  -10.4523    1.7590   22.0137 C   0  0  0  0  0  0  0  0  0  0  0  0
  -11.7778    1.8717   21.9710 C   0  0  0  0  0  0  0  0  0  0  0  0
  -12.3577    2.0697   20.7557 C   0  0  0  0  0  0  0  0  0  0  0  0
  -11.5738    2.1201   19.5596 C   0  0  0  0  0  0  0  0  0  0  0  0
  -10.2094    2.1807   19.6593 C   0  0  0  0  0  0  0  0  0  0  0  0
   -9.5695    1.9915   20.8962 C   0  0  0  0  0  0  0  0  0  0  0  0
   -8.0948   -0.9340   25.4119 C   0  0  0  0  0  0  0  0  0  0  0  0
   -7.9675   -1.2618   26.5998 N   0  0  0  0  0  0  0  0  0  0  0  0
   -7.2667   -2.0717   27.1009 C   0  0  0  0  0  0  0  0  0  0  0  0
   -7.2199   -2.2614   28.5913 C   0  0  0  0  0  0  0  0  0  0  0  0
  3  7  1  0
 12 13  1  0
  9 19  1  0
 19 20  1  0
 20 21  1  0
 21 22  2  0
  7  8  2  0
  8  9  1  0
  9 10  2  0
 10 12  1  0
 12 11  2  0
 11  7  1  0
 13 14  2  0
 14 15  1  0
 15 16  2  0
 16 17  1  0
 17 18  2  0
 18 13  1  0
  1  2  2  0
  2  5  1  0
  5  6  2  0
  6  4  1  0
  4  3  2  0
  3  1  1  0
M  END
$$$$
