No_7870-complexes_sdf/6BKW-FPZ/2024-09-17-14-21-01/
     RDKit          3D

 13 13  0  0  0  0  0  0  0  0999 V2000
   -7.2496    3.8871   27.4508 C   0  0  0  0  0  0  0  0  0  0  0  0
   -8.5096    4.0291   27.2770 C   0  0  0  0  0  0  0  0  0  0  0  0
   -9.2677    5.1714   27.5773 C   0  0  0  0  0  0  0  0  0  0  0  0
   -9.2765    2.8248   26.8371 C   0  0  0  0  0  0  0  0  0  0  0  0
   -8.6731    1.7312   26.5464 C   0  0  0  0  0  0  0  0  0  0  0  0
   -6.5350    2.6522   27.3724 C   0  0  0  0  0  0  0  0  0  0  0  0
   -5.1351    2.5444   27.7555 C   0  0  0  0  0  0  0  0  0  0  0  0
   -7.2572    1.5600   26.9507 C   0  0  0  0  0  0  0  0  0  0  0  0
   -9.3800    6.0695   26.9880 N   0  0  0  0  0  0  0  0  0  0  0  0
   -4.5528    1.3236   27.8613 O   0  0  0  0  0  0  0  0  0  0  0  0
   -8.3814    6.8337   26.4115 C   0  0  0  0  0  0  0  0  0  0  0  0
   -4.7046    3.4500   28.6643 O   0  0  0  0  0  0  0  0  0  0  0  0
  -10.1874    4.8836   28.6069 O   0  0  0  0  0  0  0  0  0  0  0  0
  2  3  1  0
  6  7  1  0
  3  9  1  0
  7 10  2  0
  9 11  1  0
  7 12  1  0
  3 13  2  0
  1  2  2  0
  2  4  1  0
  4  5  2  0
  5  8  1  0
  8  6  2  0
  6  1  1  0
M  END
$$$$
