No_7824-complexes_sdf/6BKW-FPZ/2024-09-17-14-21-01/
     RDKit          3D

 31 34  0  0  0  0  0  0  0  0999 V2000
   -7.2496    3.8871   27.4508 C   0  0  0  0  0  0  0  0  0  0  0  0
   -8.5096    4.0291   27.2770 C   0  0  0  0  0  0  0  0  0  0  0  0
   -9.2677    5.1714   27.5773 C   0  0  0  0  0  0  0  0  0  0  0  0
   -6.5711    2.6400   27.2842 C   0  0  0  0  0  0  0  0  0  0  0  0
   -7.2939    1.5094   27.0532 C   0  0  0  0  0  0  0  0  0  0  0  0
   -8.6122    1.6580   26.7575 C   0  0  0  0  0  0  0  0  0  0  0  0
   -9.2984    2.8495   26.9904 C   0  0  0  0  0  0  0  0  0  0  0  0
   -8.5439    6.4004   27.5644 C   0  0  0  0  0  0  0  0  0  0  0  0
  -10.6456    5.1416   27.8945 C   0  0  0  0  0  0  0  0  0  0  0  0
   -6.6183   -0.0118   26.8982 Cl  0  0  0  0  0  0  0  0  0  0  0  0
   -8.1288    6.9151   26.3166 C   0  0  0  0  0  0  0  0  0  0  0  0
   -7.4996    8.2139   26.5088 C   0  0  0  0  0  0  0  0  0  0  0  0
   -5.2437    2.5445   27.5892 O   0  0  0  0  0  0  0  0  0  0  0  0
   -9.2796    0.3599   26.4192 C   0  0  0  0  0  0  0  0  0  0  0  0
   -9.7699   -0.3213   27.4600 C   0  0  0  0  0  0  0  0  0  0  0  0
  -10.7508   -0.8619   27.5317 C   0  0  0  0  0  0  0  0  0  0  0  0
  -11.7326   -0.7411   26.5386 C   0  0  0  0  0  0  0  0  0  0  0  0
  -11.2917   -0.1934   25.3593 C   0  0  0  0  0  0  0  0  0  0  0  0
   -9.9652    0.3115   25.2548 C   0  0  0  0  0  0  0  0  0  0  0  0
   -9.5162    1.0143   24.1127 C   0  0  0  0  0  0  0  0  0  0  0  0
   -9.1097    0.3227   23.0104 C   0  0  0  0  0  0  0  0  0  0  0  0
   -8.8661    0.9795   21.8099 C   0  0  0  0  0  0  0  0  0  0  0  0
   -8.7829   -1.0416   23.0975 C   0  0  0  0  0  0  0  0  0  0  0  0
   -8.3966   -1.6476   23.8441 C   0  0  0  0  0  0  0  0  0  0  0  0
   -7.8397   -2.8698   24.1561 C   0  0  0  0  0  0  0  0  0  0  0  0
   -7.9613   -3.6801   23.0403 C   0  0  0  0  0  0  0  0  0  0  0  0
   -8.4669   -3.1477   21.8401 C   0  0  0  0  0  0  0  0  0  0  0  0
   -8.7716   -1.8332   21.8006 C   0  0  0  0  0  0  0  0  0  0  0  0
   -9.3416    2.3760   21.8427 C   0  0  0  0  0  0  0  0  0  0  0  0
   -9.9832    2.9915   22.9096 C   0  0  0  0  0  0  0  0  0  0  0  0
  -10.0734    2.3319   24.0683 C   0  0  0  0  0  0  0  0  0  0  0  0
  3  8  1  0
  3  9  1  0
  5 10  1  0
  8 11  1  0
 11 12  1  0
  4 13  1  0
  6 14  1  0
 19 20  1  0
 21 23  1  0
  3  2  1  0
 14 15  2  0
 15 16  1  0
 16 17  2  0
 17 18  1  0
 18 19  2  0
 19 14  1  0
 23 24  2  0
 24 25  1  0
 25 26  2  0
 26 27  1  0
 27 28  2  0
 28 23  1  0
  1  2  2  0
  2  7  1  0
  7  6  2  0
  6  5  1  0
  5  4  2  0
  4  1  1  0
 20 21  1  0
 21 22  2  0
 22 29  1  0
 29 30  2  0
 30 31  1  0
 31 20  2  0
M  END
$$$$
