No_7567-complexes_sdf/6BKW-FPZ/2024-09-17-14-21-01/
     RDKit          3D

 19 20  0  0  0  0  0  0  0  0999 V2000
   -7.9040    3.9820   27.1177 C   0  0  0  0  0  0  0  0  0  0  0  0
   -8.2057    2.8231   26.8733 C   0  0  0  0  0  0  0  0  0  0  0  0
   -9.2962    2.4021   26.1155 C   0  0  0  0  0  0  0  0  0  0  0  0
   -8.7358    5.0662   26.5917 C   0  0  0  0  0  0  0  0  0  0  0  0
   -9.7618    4.7023   25.7546 C   0  0  0  0  0  0  0  0  0  0  0  0
  -10.0066    3.4105   25.4922 C   0  0  0  0  0  0  0  0  0  0  0  0
   -8.2002    6.4309   26.9312 C   0  0  0  0  0  0  0  0  0  0  0  0
   -8.8406    7.3658   26.4718 F   0  0  0  0  0  0  0  0  0  0  0  0
   -8.3888    6.4687   28.4188 F   0  0  0  0  0  0  0  0  0  0  0  0
   -7.5591    1.5160   27.3999 C   0  0  0  0  0  0  0  0  0  0  0  0
   -6.3722    1.6965   27.9130 O   0  0  0  0  0  0  0  0  0  0  0  0
   -8.0311    0.3484   27.3730 N   0  0  0  0  0  0  0  0  0  0  0  0
   -7.3945   -0.8353   27.8995 C   0  0  0  0  0  0  0  0  0  0  0  0
   -8.2711   -1.7967   28.3769 C   0  0  0  0  0  0  0  0  0  0  0  0
   -6.9335    6.5949   26.8286 F   0  0  0  0  0  0  0  0  0  0  0  0
   -7.8495   -2.6247   29.3606 C   0  0  0  0  0  0  0  0  0  0  0  0
   -6.4611   -2.6194   29.7506 C   0  0  0  0  0  0  0  0  0  0  0  0
   -5.6213   -1.6424   29.2399 C   0  0  0  0  0  0  0  0  0  0  0  0
   -6.1131   -0.6623   28.4418 C   0  0  0  0  0  0  0  0  0  0  0  0
  4  7  1  0
  7  8  1  0
  7  9  1  0
  2 10  1  0
 10 11  2  0
 10 12  1  0
 12 13  1  0
  7 15  1  0
 13 14  2  0
 14 16  1  0
 16 17  2  0
 17 18  1  0
 18 19  2  0
 19 13  1  0
  1  2  2  0
  2  3  1  0
  3  6  2  0
  6  5  1  0
  5  4  2  0
  4  1  1  0
M  END
$$$$
