No_7034-complexes_sdf/6BKW-FPZ/2024-09-17-14-21-01/
     RDKit          3D

 20 22  0  0  0  0  0  0  0  0999 V2000
   -7.9040    3.9820   27.1177 C   0  0  0  0  0  0  0  0  0  0  0  0
   -9.0711    4.3164   27.0630 C   0  0  0  0  0  0  0  0  0  0  0  0
   -9.8698    3.9665   25.9495 C   0  0  0  0  0  0  0  0  0  0  0  0
   -7.4981    2.6202   26.7684 C   0  0  1  0  0  0  0  0  0  0  0  0
   -9.7010    2.6670   25.4919 C   0  0  2  0  0  0  0  0  0  0  0  0
   -6.3748    1.9561   27.2774 C   0  0  0  0  0  0  0  0  0  0  0  0
   -8.4807    1.9714   25.9443 C   0  0  0  0  0  0  0  0  0  0  0  0
   -6.1646    0.5884   27.1598 C   0  0  0  0  0  0  0  0  0  0  0  0
   -4.9897    0.0613   27.6464 C   0  0  0  0  0  0  0  0  0  0  0  0
   -4.0827    0.8712   28.3817 C   0  0  0  0  0  0  0  0  0  0  0  0
   -4.4275    2.1964   28.5835 C   0  0  0  0  0  0  0  0  0  0  0  0
   -5.4365    2.7230   28.0325 C   0  0  0  0  0  0  0  0  0  0  0  0
  -10.4955    2.1070   24.4691 C   0  0  0  0  0  0  0  0  0  0  0  0
  -11.7481    2.4152   24.4933 C   0  0  0  0  0  0  0  0  0  0  0  0
   -9.9744    1.2905   23.4472 C   0  0  0  0  0  0  0  0  0  0  0  0
  -12.4204    3.0508   25.2795 C   0  0  0  0  0  0  0  0  0  0  0  0
  -10.4779    1.1307   22.2837 C   0  0  0  0  0  0  0  0  0  0  0  0
  -11.8121    1.5156   22.1224 C   0  0  0  0  0  0  0  0  0  0  0  0
  -12.4209    2.0805   23.1232 C   0  0  0  0  0  0  0  0  0  0  0  0
  -13.2563    4.0651   24.9862 C   0  0  0  0  0  0  0  0  0  0  0  0
  1  2  1  0
  2  3  1  0
  1  4  1  0
  3  5  1  0
  4  6  1  1
  4  7  1  0
  5  7  1  0
  5 13  1  6
 16 20  1  0
 16 14  1  0
 13 14  2  0
 14 19  1  0
 19 18  2  0
 18 17  1  0
 17 15  2  0
 15 13  1  0
  6  8  2  0
  8  9  1  0
  9 10  2  0
 10 11  1  0
 11 12  2  0
 12  6  1  0
M  END
$$$$
