No_7686-complexes_sdf/6BKW-FPZ/2024-09-17-14-21-01/
     RDKit          3D

 23 26  0  0  0  0  0  0  0  0999 V2000
   -7.2496    3.8871   27.4508 C   0  0  0  0  0  0  0  0  0  0  0  0
   -7.6161    2.7143   27.1523 C   0  0  0  0  0  0  0  0  0  0  0  0
   -8.8302    2.4659   26.5056 C   0  0  0  0  0  0  0  0  0  0  0  0
   -8.1584    5.0090   27.3234 C   0  0  0  0  0  0  0  0  0  0  0  0
   -9.3788    4.7965   26.7695 C   0  0  0  0  0  0  0  0  0  0  0  0
   -9.7028    3.5649   26.3276 C   0  0  0  0  0  0  0  0  0  0  0  0
   -6.7190    1.5585   27.3667 C   0  0  0  0  0  0  0  0  0  0  0  0
   -7.0504    0.2135   27.2455 C   0  0  0  0  0  0  0  0  0  0  0  0
   -8.4198    0.0873   26.7028 C   0  0  0  0  0  0  0  0  0  0  0  0
   -9.2596    1.1156   26.3288 C   0  0  0  0  0  0  0  0  0  0  0  0
   -7.6146    6.5784   27.8576 Cl  0  0  0  0  0  0  0  0  0  0  0  0
   -6.2376   -0.8246   27.5967 C   0  0  0  0  0  0  0  0  0  0  0  0
   -6.6561   -1.8654   28.0540 C   0  0  0  0  0  0  0  0  0  0  0  0
   -5.8522   -2.9944   28.4900 C   0  0  0  0  0  0  0  0  0  0  0  0
   -4.8185   -0.6070   27.5118 C   0  0  0  0  0  0  0  0  0  0  0  0
   -3.9029   -1.6554   27.8959 C   0  0  0  0  0  0  0  0  0  0  0  0
   -4.4482   -2.8266   28.3980 C   0  0  0  0  0  0  0  0  0  0  0  0
  -10.5404    0.8079   25.8074 C   0  0  0  0  0  0  0  0  0  0  0  0
  -10.7039   -0.2674   25.3153 C   0  0  0  0  0  0  0  0  0  0  0  0
  -11.9928   -0.5929   24.7004 C   0  0  0  0  0  0  0  0  0  0  0  0
  -12.9738    0.3452   24.8137 C   0  0  0  0  0  0  0  0  0  0  0  0
  -12.7624    1.5467   25.3597 C   0  0  0  0  0  0  0  0  0  0  0  0
  -11.5495    1.8571   25.9175 C   0  0  0  0  0  0  0  0  0  0  0  0
  4 11  1  0
  8 12  1  0
 10 18  1  0
 12 13  2  0
 13 14  1  0
 14 17  2  0
 17 16  1  0
 16 15  2  0
 15 12  1  0
  1  2  2  0
  3  6  2  0
  6  5  1  0
  5  4  2  0
  4  1  1  0
  2  3  1  0
  3 10  1  0
 10  9  2  0
  9  8  1  0
  8  7  2  0
  7  2  1  0
 18 19  2  0
 19 20  1  0
 20 21  2  0
 21 22  1  0
 22 23  2  0
 23 18  1  0
M  END
$$$$
