No_7264-complexes_sdf/6BKW-FPZ/2024-09-17-14-21-01/
     RDKit          3D

 23 25  0  0  0  0  0  0  0  0999 V2000
   -7.9040    3.9820   27.1177 C   0  0  0  0  0  0  0  0  0  0  0  0
   -7.8663    4.8694   27.9238 C   0  0  0  0  0  0  0  0  0  0  0  0
   -7.4547    2.7080   27.4594 C   0  0  0  0  0  0  0  0  0  0  0  0
   -7.9337    1.5946   26.8372 C   0  0  0  0  0  0  0  0  0  0  0  0
   -8.9032    1.7881   25.8510 C   0  0  0  0  0  0  0  0  0  0  0  0
   -9.3787    2.9871   25.5530 C   0  0  0  0  0  0  0  0  0  0  0  0
   -8.9781    4.0300   26.2200 C   0  0  0  0  0  0  0  0  0  0  0  0
   -8.2454    6.2265   27.6332 N   0  0  0  0  0  0  0  0  0  0  0  0
   -9.1863    6.5523   26.7292 C   0  0  0  0  0  0  0  0  0  0  0  0
   -9.5464    5.3954   25.9189 C   0  0  0  0  0  0  0  0  0  0  0  0
   -7.3252    0.2709   27.1267 C   0  0  0  0  0  0  0  0  0  0  0  0
   -8.0731   -1.1411   27.3661 Cl  0  0  0  0  0  0  0  0  0  0  0  0
   -5.8539    0.2250   27.2073 C   0  0  0  0  0  0  0  0  0  0  0  0
   -5.2024   -0.5511   26.5272 N   0  0  0  0  0  0  0  0  0  0  0  0
   -5.3505   -1.2101   25.7249 C   0  0  0  0  0  0  0  0  0  0  0  0
   -5.5198   -2.1798   25.5291 C   0  0  0  0  0  0  0  0  0  0  0  0
   -5.1843   -3.0167   26.6516 C   0  0  0  0  0  0  0  0  0  0  0  0
   -5.5460   -4.3548   26.7884 C   0  0  0  0  0  0  0  0  0  0  0  0
   -5.2853   -5.0535   27.8960 C   0  0  0  0  0  0  0  0  0  0  0  0
   -4.5527   -4.4713   28.9540 C   0  0  0  0  0  0  0  0  0  0  0  0
   -4.1316   -3.1733   28.8742 C   0  0  0  0  0  0  0  0  0  0  0  0
   -4.4352   -2.4241   27.7912 C   0  0  0  0  0  0  0  0  0  0  0  0
   -4.0331   -1.0211   27.3220 C   0  0  0  0  0  0  0  0  0  0  0  0
  4 11  1  0
 11 12  1  0
 11 13  1  0
 13 14  1  0
 14 15  1  0
 15 16  2  3
 16 17  1  0
 14 23  1  0
 17 18  2  0
 18 19  1  0
 19 20  2  0
 20 21  1  0
 21 22  2  0
 22 17  1  0
  1  2  2  0
  2  8  1  0
  8  9  2  0
  9 10  1  0
 10  7  2  0
  1  3  1  0
  3  4  2  0
  4  5  1  0
  5  6  2  0
  6  7  1  0
  7  1  1  0
M  END
$$$$
