No_7477-complexes_sdf/6BKW-FPZ/2024-09-17-14-21-01/
     RDKit          3D

 21 23  0  0  0  0  0  0  0  0999 V2000
   -7.2496    3.8871   27.4508 C   0  0  0  0  0  0  0  0  0  0  0  0
   -7.6161    2.7143   27.1523 C   0  0  0  0  0  0  0  0  0  0  0  0
   -8.6212    2.2239   26.4074 C   0  0  0  0  0  0  0  0  0  0  0  0
   -6.2236    4.3429   28.3592 C   0  0  0  0  0  0  0  0  0  0  0  0
   -9.5004    3.2036   25.9135 C   0  0  0  0  0  0  0  0  0  0  0  0
   -9.2386    4.5882   26.2126 C   0  0  0  0  0  0  0  0  0  0  0  0
   -8.3137    4.9318   27.0172 C   0  0  0  0  0  0  0  0  0  0  0  0
  -10.5835    2.8724   24.9865 C   0  0  0  0  0  0  0  0  0  0  0  0
  -11.7064    2.5653   25.3398 C   0  0  0  0  0  0  0  0  0  0  0  0
  -10.2316    2.7834   23.5731 C   0  0  0  0  0  0  0  0  0  0  0  0
  -11.0499    2.5231   22.5575 C   0  0  0  0  0  0  0  0  0  0  0  0
  -12.7673    2.2626   24.3364 C   0  0  0  0  0  0  0  0  0  0  0  0
  -12.3795    2.2296   23.0009 C   0  0  0  0  0  0  0  0  0  0  0  0
   -8.0407    6.2212   27.3035 F   0  0  0  0  0  0  0  0  0  0  0  0
   -8.8427    0.6103   26.0124 Cl  0  0  0  0  0  0  0  0  0  0  0  0
  -13.3412    1.9053   22.0240 N   0  0  0  0  0  0  0  0  0  0  0  0
  -13.2860    1.9551   20.8848 C   0  0  0  0  0  0  0  0  0  0  0  0
  -14.1528    1.5636   19.9756 C   0  0  0  0  0  0  0  0  0  0  0  0
  -14.6232    1.4088   22.4977 C   0  0  0  0  0  0  0  0  0  0  0  0
  -15.5941    1.0410   21.6539 C   0  0  0  0  0  0  0  0  0  0  0  0
  -15.3689    1.1519   20.3499 C   0  0  0  0  0  0  0  0  0  0  0  0
  1  4  1  0
  5  8  1  0
  7 14  1  0
  3 15  1  0
 13 16  1  0
 16 17  1  0
 16 19  1  0
 18 21  1  0
 20 21  1  0
 17 18  1  0
 20 19  1  0
  8  9  2  0
  9 12  1  0
 12 13  2  0
 13 11  1  0
 11 10  2  0
 10  8  1  0
  1  2  2  0
  2  3  1  0
  3  5  2  0
  5  6  1  0
  6  7  2  0
  7  1  1  0
M  END
$$$$
