No_7533-complexes_sdf/6BKW-FPZ/2024-09-17-14-21-01/
     RDKit          3D

  6  6  0  0  0  0  0  0  0  0999 V2000
   -7.2496    3.8871   27.4508 C   0  0  0  0  0  0  0  0  0  0  0  0
   -8.5096    4.0291   27.2770 C   0  0  0  0  0  0  0  0  0  0  0  0
   -9.3757    2.9091   26.8765 C   0  0  0  0  0  0  0  0  0  0  0  0
   -6.6471    2.5348   27.4890 C   0  0  0  0  0  0  0  0  0  0  0  0
   -7.4540    1.4559   27.1934 C   0  0  0  0  0  0  0  0  0  0  0  0
   -8.8144    1.6719   26.9254 C   0  0  0  0  0  0  0  0  0  0  0  0
  1  2  2  0
  2  3  1  0
  3  6  2  0
  6  5  1  0
  5  4  2  0
  4  1  1  0
M  END
$$$$
