No_7198-complexes_sdf/6BKW-FPZ/2024-09-17-14-21-01/
     RDKit          3D

 17 18  0  0  0  0  0  0  0  0999 V2000
   -7.7129    4.2099   27.0854 C   0  0  0  0  0  0  0  0  0  0  0  0
   -8.9133    4.4736   27.0998 C   0  0  0  0  0  0  0  0  0  0  0  0
   -9.4643    5.5426   27.7628 C   0  0  0  0  0  0  0  0  0  0  0  0
   -6.8373    4.9942   27.9785 C   0  0  0  0  0  0  0  0  0  0  0  0
   -7.3717    6.0428   28.6744 C   0  0  0  0  0  0  0  0  0  0  0  0
   -8.6869    6.3937   28.5345 C   0  0  0  0  0  0  0  0  0  0  0  0
   -9.9418    3.7066   26.3114 C   0  0  0  0  0  0  0  0  0  0  0  0
   -9.9264    3.9455   24.8571 C   0  0  0  0  0  0  0  0  0  0  0  0
  -10.6858    3.2627   23.9772 C   0  0  0  0  0  0  0  0  0  0  0  0
  -11.5457    2.2802   24.4020 C   0  0  0  0  0  0  0  0  0  0  0  0
  -10.7588    2.6853   26.4483 C   0  0  0  0  0  0  0  0  0  0  0  0
  -10.6991    2.3044   28.0020 C   0  0  0  0  0  0  0  0  0  0  0  0
  -11.5601    1.9571   25.6885 C   0  0  0  0  0  0  0  0  0  0  0  0
  -11.1041    0.9870   28.3795 C   0  0  0  0  0  0  0  0  0  0  0  0
  -10.7437    0.5081   29.4841 C   0  0  0  0  0  0  0  0  0  0  0  0
  -11.1638   -0.8776   29.4628 C   0  0  0  0  0  0  0  0  0  0  0  0
  -11.7799   -1.3746   28.4156 C   0  0  0  0  0  0  0  0  0  0  0  0
  2  7  1  0
 11 12  1  0
 12 14  2  3
 14 15  1  0
 15 16  2  3
 16 17  1  0
  1  2  2  0
  2  3  1  0
  3  6  2  0
  6  5  1  0
  5  4  2  0
  4  1  1  0
  7  8  2  0
  8  9  1  0
  9 10  2  0
 10 13  1  0
 13 11  2  0
 11  7  1  0
M  END
$$$$
