No_7018-complexes_sdf/6BKW-FPZ/2024-09-17-14-21-01/
     RDKit          3D

 15 16  0  0  0  0  0  0  0  0999 V2000
   -7.9040    3.9820   27.1177 C   0  0  0  0  0  0  0  0  0  0  0  0
   -8.2057    2.8231   26.8733 C   0  0  0  0  0  0  0  0  0  0  0  0
   -9.3234    2.2125   27.0599 C   0  0  0  0  0  0  0  0  0  0  0  0
   -9.0146    4.9428   27.2420 C   0  0  0  0  0  0  0  0  0  0  0  0
  -10.2851    4.4096   27.2820 C   0  0  0  0  0  0  0  0  0  0  0  0
  -10.4907    3.0453   27.2378 C   0  0  0  0  0  0  0  0  0  0  0  0
   -8.7446    6.3752   27.3815 C   0  0  0  0  0  0  0  0  0  0  0  0
   -7.3837    6.8146   27.2851 C   0  0  0  0  0  0  0  0  0  0  0  0
   -9.5599    0.7271   26.9205 C   0  0  0  0  0  0  0  0  0  0  0  0
   -9.9482    0.2325   25.7899 C   0  0  0  0  0  0  0  0  0  0  0  0
   -9.8694   -0.9967   25.5352 C   0  0  0  0  0  0  0  0  0  0  0  0
   -9.5570   -1.9421   26.6052 C   0  0  0  0  0  0  0  0  0  0  0  0
   -9.1999   -1.4639   27.8217 C   0  0  0  0  0  0  0  0  0  0  0  0
   -9.1238   -0.1069   28.0748 C   0  0  0  0  0  0  0  0  0  0  0  0
   -7.5463    8.1078   26.8991 Cl  0  0  0  0  0  0  0  0  0  0  0  0
  4  7  1  0
  7  8  1  0
  3  9  1  0
  8 15  1  0
  1  2  2  0
  2  3  1  0
  3  6  2  0
  6  5  1  0
  5  4  2  0
  4  1  1  0
  9 10  2  0
 10 11  1  0
 11 12  2  0
 12 13  1  0
 13 14  2  0
 14  9  1  0
M  END
$$$$
