No_7153-complexes_sdf/6BKW-FPZ/2024-09-17-14-21-01/
     RDKit          3D

 29 33  0  0  0  0  0  0  0  0999 V2000
   -7.2496    3.8871   27.4508 C   0  0  0  0  0  0  0  0  0  0  0  0
   -8.5096    4.0291   27.2770 C   0  0  0  0  0  0  0  0  0  0  0  0
   -9.2677    5.1714   27.5773 C   0  0  0  0  0  0  0  0  0  0  0  0
   -9.2765    2.8248   26.8371 C   0  0  0  0  0  0  0  0  0  0  0  0
  -10.4623    3.0171   26.3236 C   0  0  0  0  0  0  0  0  0  0  0  0
  -10.8972    2.6250   25.3350 C   0  0  0  0  0  0  0  0  0  0  0  0
  -10.0294    1.7957   24.4945 C   0  0  0  0  0  0  0  0  0  0  0  0
   -6.4963    4.9658   28.0859 C   0  0  0  0  0  0  0  0  0  0  0  0
   -8.9767    1.1891   25.1556 C   0  0  0  0  0  0  0  0  0  0  0  0
   -8.4920    1.7258   26.4258 C   0  0  0  0  0  0  0  0  0  0  0  0
   -7.2445    6.1366   28.3650 C   0  0  0  0  0  0  0  0  0  0  0  0
   -8.5540    6.3112   28.0570 C   0  0  0  0  0  0  0  0  0  0  0  0
  -10.4993    1.0958   23.2549 C   0  0  0  0  0  0  0  0  0  0  0  0
  -11.4517    0.1829   23.3359 C   0  0  0  0  0  0  0  0  0  0  0  0
  -11.9136   -0.3816   22.1940 C   0  0  0  0  0  0  0  0  0  0  0  0
  -11.4224   -0.0472   20.9414 C   0  0  0  0  0  0  0  0  0  0  0  0
   -9.8883    1.5379   22.0071 C   0  0  0  0  0  0  0  0  0  0  0  0
  -10.4301    0.9020   20.9307 C   0  0  0  0  0  0  0  0  0  0  0  0
   -8.2699    0.1630   24.5914 N   0  0  0  0  0  0  0  0  0  0  0  0
   -7.5040   -0.7298   25.3344 C   0  0  0  0  0  0  0  0  0  0  0  0
   -6.7629   -1.6495   24.5553 C   0  0  0  0  0  0  0  0  0  0  0  0
   -5.6350   -2.1642   25.0231 C   0  0  0  0  0  0  0  0  0  0  0  0
   -5.2653   -1.9995   26.4110 C   0  0  0  0  0  0  0  0  0  0  0  0
   -6.0572   -1.0575   27.1340 C   0  0  0  0  0  0  0  0  0  0  0  0
   -7.0651   -0.3556   26.5962 C   0  0  0  0  0  0  0  0  0  0  0  0
   -7.7443    0.8585   27.1691 C   0  0  0  0  0  0  0  0  0  0  0  0
  -12.2187    2.9135   24.6598 C   0  0  0  0  0  0  0  0  0  0  0  0
  -12.3309    3.9495   23.8231 C   0  0  0  0  0  0  0  0  0  0  0  0
  -13.5714    4.3406   23.2688 C   0  0  0  0  0  0  0  0  0  0  0  0
  2  4  1  0
  7 13  1  0
  9 19  1  0
 19 20  1  0
 10 26  1  0
 25 26  1  0
  6 27  1  0
 27 28  2  3
 28 29  1  0
  1  2  2  0
  2  3  1  0
  3 12  2  0
 12 11  1  0
 11  8  2  0
  8  1  1  0
 13 14  2  0
 14 15  1  0
 15 16  2  0
 16 18  1  0
 18 17  2  0
 17 13  1  0
 20 21  2  0
 21 22  1  0
 22 23  2  0
 23 24  1  0
 24 25  2  0
 25 20  1  0
  4  5  2  0
  5  6  1  0
  6  7  2  0
  7  9  1  0
  9 10  2  0
 10  4  1  0
M  END
$$$$
