No_7219-complexes_sdf/6BKW-FPZ/2024-09-17-14-21-01/
     RDKit          3D

 15 16  0  0  0  0  0  0  0  0999 V2000
   -7.9040    3.9820   27.1177 C   0  0  0  0  0  0  0  0  0  0  0  0
   -9.0711    4.3164   27.0630 C   0  0  0  0  0  0  0  0  0  0  0  0
   -9.5294    5.4517   27.7215 C   0  0  0  0  0  0  0  0  0  0  0  0
   -9.9845    3.5634   26.2189 C   0  0  0  0  0  0  0  0  0  0  0  0
  -10.5758    2.5046   26.7628 C   0  0  0  0  0  0  0  0  0  0  0  0
  -10.4293    2.0903   27.9866 C   0  0  0  0  0  0  0  0  0  0  0  0
   -6.9060    4.6050   28.0306 C   0  0  0  0  0  0  0  0  0  0  0  0
  -11.3638    1.5912   25.8517 C   0  0  0  0  0  0  0  0  0  0  0  0
   -7.3040    5.7900   28.6345 C   0  0  0  0  0  0  0  0  0  0  0  0
   -8.5326    6.2704   28.2309 C   0  0  0  0  0  0  0  0  0  0  0  0
  -11.9221    0.7606   26.1034 C   0  0  0  0  0  0  0  0  0  0  0  0
  -11.1681    0.9417   28.5267 C   0  0  0  0  0  0  0  0  0  0  0  0
  -11.8952    0.2223   27.6109 C   0  0  0  0  0  0  0  0  0  0  0  0
  -10.1727    4.0158   24.8865 C   0  0  0  0  0  0  0  0  0  0  0  0
  -10.7562    3.3355   23.8967 C   0  0  0  0  0  0  0  0  0  0  0  0
  2  4  1  0
  4  5  1  0
  4 14  1  0
 14 15  2  0
  1  2  2  0
  2  3  1  0
  3 10  2  0
 10  9  1  0
  9  7  2  0
  7  1  1  0
  5  6  2  0
  6 12  1  0
 12 13  2  0
 13 11  1  0
 11  8  2  0
  8  5  1  0
M  END
$$$$
