No_7620-complexes_sdf/6BKW-FPZ/2024-09-17-14-21-01/
     RDKit          3D

 23 24  0  0  0  0  0  0  0  0999 V2000
   -7.2496    3.8871   27.4508 C   0  0  0  0  0  0  0  0  0  0  0  0
   -8.5096    4.0291   27.2770 C   0  0  0  0  0  0  0  0  0  0  0  0
   -9.2677    5.1714   27.5773 C   0  0  0  0  0  0  0  0  0  0  0  0
   -6.5711    2.6400   27.2842 C   0  0  0  0  0  0  0  0  0  0  0  0
   -7.2751    1.5612   27.3443 C   0  0  0  0  0  0  0  0  0  0  0  0
   -8.6452    1.6030   27.1566 C   0  0  0  0  0  0  0  0  0  0  0  0
   -9.2835    2.8243   27.2772 C   0  0  0  0  0  0  0  0  0  0  0  0
   -9.2125    6.1121   26.6838 C   0  0  0  0  0  0  0  0  0  0  0  0
   -6.4923    0.0116   27.2371 Cl  0  0  0  0  0  0  0  0  0  0  0  0
   -8.5771    7.4186   27.0519 C   0  0  0  0  0  0  0  0  0  0  0  0
   -9.3147    5.8376   25.3280 C   0  0  0  0  0  0  0  0  0  0  0  0
   -9.8641    4.6023   24.9709 C   0  0  0  0  0  0  0  0  0  0  0  0
  -10.4700    4.3881   23.6777 C   0  0  0  0  0  0  0  0  0  0  0  0
  -10.8245    3.1254   23.2271 C   0  0  0  0  0  0  0  0  0  0  0  0
  -10.5072    2.0688   24.0415 C   0  0  0  0  0  0  0  0  0  0  0  0
   -9.8671    2.2146   25.2466 C   0  0  0  0  0  0  0  0  0  0  0  0
   -9.5149    3.4823   25.6247 C   0  0  0  0  0  0  0  0  0  0  0  0
   -8.7148    3.7607   25.0573 F   0  0  0  0  0  0  0  0  0  0  0  0
  -10.4848    2.7638   28.0261 C   0  0  0  0  0  0  0  0  0  0  0  0
   -9.8647    0.8812   25.8414 C   0  0  0  0  0  0  0  0  0  0  0  0
   -9.1966    0.6056   28.3713 C   0  0  0  0  0  0  0  0  0  0  0  0
   -9.9929   -0.2848   25.6793 C   0  0  0  0  0  0  0  0  0  0  0  0
  -10.6370    1.1548   26.4919 F   0  0  0  0  0  0  0  0  0  0  0  0
  3  8  1  0
  5  9  1  0
  8 10  2  0
  8 11  1  0
 11 12  1  0
 17 18  1  0
  7 19  1  0
 16 20  1  0
  6 21  1  0
 20 22  2  0
 20 23  1  0
  3  2  1  0
 12 13  2  0
 13 14  1  0
 14 15  2  0
 15 16  1  0
 16 17  2  0
 17 12  1  0
  1  2  2  0
  2  7  1  0
  7  6  2  0
  6  5  1  0
  5  4  2  0
  4  1  1  0
M  END
$$$$
