No_7133-complexes_sdf/6BKW-FPZ/2024-09-17-14-21-01/
     RDKit          3D

 23 27  0  0  0  0  0  0  0  0999 V2000
   -7.9040    3.9820   27.1177 C   0  0  0  0  0  0  0  0  0  0  0  0
   -7.8663    4.8694   27.9238 C   0  0  0  0  0  0  0  0  0  0  0  0
   -9.0501    3.8017   26.2617 C   0  0  0  0  0  0  0  0  0  0  0  0
  -10.0189    4.7608   26.3707 C   0  0  0  0  0  0  0  0  0  0  0  0
   -8.6770    5.9780   27.9222 C   0  0  0  0  0  0  0  0  0  0  0  0
   -9.8040    5.8752   27.0958 C   0  0  0  0  0  0  0  0  0  0  0  0
   -9.1484    2.6214   25.4213 C   0  0  0  0  0  0  0  0  0  0  0  0
  -10.0295    2.6889   24.3385 C   0  0  0  0  0  0  0  0  0  0  0  0
  -10.7604    3.8422   24.0810 C   0  0  0  0  0  0  0  0  0  0  0  0
  -10.9050    4.8018   25.1844 C   0  0  0  0  0  0  0  0  0  0  0  0
  -11.7101    3.8711   23.0098 C   0  0  0  0  0  0  0  0  0  0  0  0
  -11.2115    3.6558   21.8528 C   0  0  0  0  0  0  0  0  0  0  0  0
  -12.0174    3.6681   20.6175 C   0  0  0  0  0  0  0  0  0  0  0  0
  -13.3493    4.1112   20.7477 C   0  0  0  0  0  0  0  0  0  0  0  0
  -13.0045    4.3797   23.0859 C   0  0  0  0  0  0  0  0  0  0  0  0
  -13.5111    4.6729   24.4296 C   0  0  0  0  0  0  0  0  0  0  0  0
  -13.8395    4.4705   21.9896 C   0  0  0  0  0  0  0  0  0  0  0  0
  -14.7567    5.2645   24.5420 C   0  0  0  0  0  0  0  0  0  0  0  0
  -15.2935    5.5380   25.8220 C   0  0  0  0  0  0  0  0  0  0  0  0
  -14.6258    5.0797   26.9771 C   0  0  0  0  0  0  0  0  0  0  0  0
  -13.4234    4.4073   26.8627 C   0  0  0  0  0  0  0  0  0  0  0  0
  -12.8920    4.1732   25.5582 C   0  0  0  0  0  0  0  0  0  0  0  0
  -11.7450    3.5610   25.6023 O   0  0  0  0  0  0  0  0  0  0  0  0
  9 11  1  0
 15 16  1  0
 10 23  1  0
 22 23  1  0
  4 10  2  0
 10  9  1  0
  9  8  2  0
  8  7  1  0
  7  3  2  0
 16 18  2  0
 18 19  1  0
 19 20  2  0
 20 21  1  0
 21 22  2  0
 22 16  1  0
  1  2  2  0
  2  5  1  0
  5  6  2  0
  6  4  1  0
  4  3  1  0
  3  1  1  0
 11 12  2  0
 12 13  1  0
 13 14  2  0
 14 17  1  0
 17 15  2  0
 15 11  1  0
M  END
$$$$
