No_774-complexes_sdf/6BKW-FPZ/2024-09-17-14-21-01/
     RDKit          3D

 40 45  0  0  0  0  0  0  0  0999 V2000
   -7.9040    3.9820   27.1177 C   0  0  0  0  0  0  0  0  0  0  0  0
   -9.0711    4.3164   27.0630 C   0  0  0  0  0  0  0  0  0  0  0  0
   -9.5182    5.5541   27.5777 C   0  0  0  0  0  0  0  0  0  0  0  0
   -7.4468    2.6843   26.6499 C   0  0  0  0  0  0  0  0  0  0  0  0
   -8.3856    1.7878   26.2216 C   0  0  0  0  0  0  0  0  0  0  0  0
   -9.6812    2.2328   26.0889 C   0  0  0  0  0  0  0  0  0  0  0  0
  -10.0147    3.4312   26.5259 C   0  0  0  0  0  0  0  0  0  0  0  0
   -7.9143    0.4677   25.8109 C   0  0  0  0  0  0  0  0  0  0  0  0
   -7.1754   -0.2890   26.5788 N   0  0  0  0  0  0  0  0  0  0  0  0
   -6.2635   -0.9488   26.2980 C   0  0  0  0  0  0  0  0  0  0  0  0
   -5.3333   -1.5037   27.2943 C   0  0  0  0  0  0  0  0  0  0  0  0
   -4.2538   -1.4772   27.4392 C   0  0  0  0  0  0  0  0  0  0  0  0
   -3.5003   -1.7801   28.6987 C   0  0  0  0  0  0  0  0  0  0  0  0
   -4.3186   -2.0128   29.8302 C   0  0  0  0  0  0  0  0  0  0  0  0
   -5.6628   -1.9372   29.7174 C   0  0  0  0  0  0  0  0  0  0  0  0
   -6.2271   -1.5719   28.5130 C   0  0  0  0  0  0  0  0  0  0  0  0
   -7.4180   -0.4971   28.0527 C   0  0  0  0  0  0  0  0  0  0  0  0
   -8.0063    0.1668   24.6399 O   0  0  0  0  0  0  0  0  0  0  0  0
   -8.6786    6.7342   27.1938 C   0  0  0  0  0  0  0  0  0  0  0  0
   -9.1143    7.7975   26.3990 C   0  0  0  0  0  0  0  0  0  0  0  0
   -7.8605    7.3240   28.4045 C   0  0  0  0  0  0  0  0  0  0  0  0
   -3.6965   -2.3479   31.1430 C   0  0  2  0  0  0  0  0  0  0  0  0
   -3.6293   -1.5498   32.1326 C   0  0  0  0  0  0  0  0  0  0  0  0
   -3.9382   -0.2061   32.0844 C   0  0  0  0  0  0  0  0  0  0  0  0
   -3.0942   -2.0227   33.4745 C   0  0  0  0  0  0  0  0  0  0  0  0
   -2.6291   -1.6393   34.2959 C   0  0  0  0  0  0  0  0  0  0  0  0
   -2.2961   -2.1134   35.6214 C   0  0  0  0  0  0  0  0  0  0  0  0
   -1.9108   -1.2191   36.6679 C   0  0  0  0  0  0  0  0  0  0  0  0
   -1.7319   -1.4419   37.8848 C   0  0  0  0  0  0  0  0  0  0  0  0
   -2.2068    0.1631   36.2258 C   0  0  0  0  0  0  0  0  0  0  0  0
   -2.4464    0.5998   35.0454 N   0  0  0  0  0  0  0  0  0  0  0  0
   -2.6324   -0.1065   34.1863 C   0  0  0  0  0  0  0  0  0  0  0  0
   -3.4558    0.5529   33.1300 C   0  0  0  0  0  0  0  0  0  0  0  0
   -3.1068   -3.7067   31.0219 C   0  0  0  0  0  0  0  0  0  0  0  0
   -1.1763   -0.7642   38.5671 C   0  0  0  0  0  0  0  0  0  0  0  0
   -1.7101    1.1467   37.2287 C   0  0  0  0  0  0  0  0  0  0  0  0
   -1.3187    0.7195   38.4748 C   0  0  0  0  0  0  0  0  0  0  0  0
   -3.0722   -4.5627   30.0621 C   0  0  0  0  0  0  0  0  0  0  0  0
   -3.6103   -4.7212   29.2093 C   0  0  0  0  0  0  0  0  0  0  0  0
   -3.4668   -5.8061   28.2250 C   0  0  0  0  0  0  0  0  0  0  0  0
  2  3  1  0
  5  8  1  0
  8  9  1  0
  9 10  1  0
  9 17  1  0
 16 17  1  0
  8 18  2  0
  3 19  1  0
 19 20  1  0
 19 21  1  0
 14 22  1  0
 22 23  1  0
 22 34  1  6
 34 38  1  0
 38 39  1  0
 39 40  2  0
 10 11  1  0
 26 27  1  0
 27 28  2  0
 30 31  2  0
 31 32  1  0
  1  2  2  0
  2  7  1  0
  7  6  2  0
  6  5  1  0
  5  4  2  0
  4  1  1  0
 11 12  2  0
 12 13  1  0
 13 14  2  0
 14 15  1  0
 15 16  2  0
 16 11  1  0
 28 29  1  0
 29 35  2  0
 35 37  1  0
 37 36  2  0
 36 30  1  0
 30 28  1  0
 23 24  2  0
 24 33  1  0
 33 32  2  0
 32 26  1  0
 26 25  2  0
 25 23  1  0
M  END
$$$$
