No_7917-complexes_sdf/6BKW-FPZ/2024-09-17-14-21-01/
     RDKit          3D

 30 33  0  0  0  0  0  0  0  0999 V2000
   -7.7129    4.2099   27.0854 C   0  0  0  0  0  0  0  0  0  0  0  0
   -8.2112    3.0637   26.9225 C   0  0  0  0  0  0  0  0  0  0  0  0
   -7.5138    1.9223   27.4249 C   0  0  0  0  0  0  0  0  0  0  0  0
   -6.5434    4.4363   27.9024 C   0  0  0  0  0  0  0  0  0  0  0  0
   -8.0049    0.5813   27.2334 C   0  0  0  0  0  0  0  0  0  0  0  0
   -5.8167    3.2991   28.1514 N   0  0  0  0  0  0  0  0  0  0  0  0
   -6.2672    2.0690   28.0195 C   0  0  0  0  0  0  0  0  0  0  0  0
   -9.3894    0.4292   27.0679 C   0  0  0  0  0  0  0  0  0  0  0  0
  -10.1962    1.5885   26.8192 C   0  0  0  0  0  0  0  0  0  0  0  0
   -9.6214    2.8404   26.7301 C   0  0  0  0  0  0  0  0  0  0  0  0
   -5.4247    1.0611   28.2852 N   0  0  0  0  0  0  0  0  0  0  0  0
   -4.3222    0.5719   27.7543 C   0  0  0  0  0  0  0  0  0  0  0  0
   -3.5875   -0.2153   28.5250 C   0  0  0  0  0  0  0  0  0  0  0  0
   -3.8478   -0.9228   29.2250 C   0  0  0  0  0  0  0  0  0  0  0  0
   -5.2077   -0.7640   29.8456 C   0  0  0  0  0  0  0  0  0  0  0  0
   -5.8961    0.1742   29.3299 C   0  0  0  0  0  0  0  0  0  0  0  0
   -8.4754    5.4695   26.7489 C   0  0  0  0  0  0  0  0  0  0  0  0
   -8.8327    6.4733   27.4781 C   0  0  0  0  0  0  0  0  0  0  0  0
   -9.1490    5.3052   25.3937 C   0  0  0  0  0  0  0  0  0  0  0  0
   -5.6823   -1.6246   30.9733 C   0  0  0  0  0  0  0  0  0  0  0  0
   -5.3266   -1.3277   32.2676 C   0  0  0  0  0  0  0  0  0  0  0  0
   -5.8339   -2.0859   33.3811 C   0  0  0  0  0  0  0  0  0  0  0  0
   -6.7584   -3.0907   33.0647 C   0  0  0  0  0  0  0  0  0  0  0  0
   -6.5843   -2.6383   30.8128 C   0  0  0  0  0  0  0  0  0  0  0  0
   -7.1312   -3.3487   31.7822 C   0  0  0  0  0  0  0  0  0  0  0  0
   -5.3001   -1.7056   35.0351 P   0  0  2  0  0  0  0  0  0  0  0  0
   -4.2591   -2.9019   35.4200 O   0  0  0  0  0  0  0  0  0  0  0  0
   -6.3776   -1.5276   36.0289 O   0  0  0  0  0  0  0  0  0  0  0  0
   -4.3721   -0.4541   34.8950 O   0  0  0  0  0  0  0  0  0  0  0  0
   -6.0667   -0.7975   37.3919 Cl  0  0  0  0  0  0  0  0  0  0  0  0
  7 11  1  0
 11 12  1  0
 13 14  1  0
 11 16  1  0
 15 16  1  0
  1 17  1  0
 17 18  1  0
 17 19  1  0
 15 20  1  0
 22 26  1  0
 26 27  1  1
 26 28  1  0
 26 29  2  0
 28 30  1  0
 12 13  1  0
 14 15  1  0
  3  5  1  0
  5  8  2  0
  8  9  1  0
  9 10  2  0
 10  2  1  0
 20 21  2  0
 21 22  1  0
 22 23  2  0
 23 25  1  0
 25 24  2  0
 24 20  1  0
  1  2  2  0
  2  3  1  0
  3  7  2  0
  7  6  1  0
  6  4  2  0
  4  1  1  0
M  END
$$$$
