No_7146-complexes_sdf/6BKW-FPZ/2024-09-17-14-21-01/
     RDKit          3D

  9  9  0  0  0  0  0  0  0  0999 V2000
   -7.7129    4.2099   27.0854 C   0  0  0  0  0  0  0  0  0  0  0  0
   -7.7814    5.1722   27.8972 C   0  0  0  0  0  0  0  0  0  0  0  0
   -8.8998    3.8713   26.3707 C   0  0  0  0  0  0  0  0  0  0  0  0
   -9.1401    2.5906   25.9433 C   0  0  0  0  0  0  0  0  0  0  0  0
   -8.7190    6.1530   27.7520 N   0  0  0  0  0  0  0  0  0  0  0  0
   -9.8494    5.9312   27.0980 C   0  0  0  0  0  0  0  0  0  0  0  0
   -9.9529    4.7582   26.4430 C   0  0  0  0  0  0  0  0  0  0  0  0
   -8.5184    1.4779   26.6357 C   0  0  0  0  0  0  0  0  0  0  0  0
   -8.4341    0.2087   26.1165 C   0  0  0  0  0  0  0  0  0  0  0  0
  1  2  1  0
  1  3  1  0
  3  4  2  3
  2  5  1  0
  5  6  1  0
  3  7  1  0
  6  7  1  0
  4  8  1  0
  8  9  2  0
M  END
$$$$
