No_7838-complexes_sdf/6BKW-FPZ/2024-09-17-14-21-01/
     RDKit          3D

 34 38  0  0  0  0  0  0  0  0999 V2000
   -7.7129    4.2099   27.0854 C   0  0  0  0  0  0  0  0  0  0  0  0
   -8.2112    3.0637   26.9225 C   0  0  0  0  0  0  0  0  0  0  0  0
   -9.4446    2.8304   26.1868 C   0  0  0  0  0  0  0  0  0  0  0  0
   -8.4697    5.3956   26.7238 C   0  0  0  0  0  0  0  0  0  0  0  0
   -9.6172    5.2111   25.9513 C   0  0  0  0  0  0  0  0  0  0  0  0
  -10.0424    3.9782   25.6873 C   0  0  0  0  0  0  0  0  0  0  0  0
   -7.5056    1.8167   27.4088 C   0  0  0  0  0  0  0  0  0  0  0  0
   -6.1365    1.8782   27.7502 C   0  0  0  0  0  0  0  0  0  0  0  0
   -5.4402    0.7398   28.2080 C   0  0  0  0  0  0  0  0  0  0  0  0
   -6.0836   -0.4843   28.1647 C   0  0  0  0  0  0  0  0  0  0  0  0
   -8.1783    0.5771   27.4928 C   0  0  0  0  0  0  0  0  0  0  0  0
   -9.4979    0.5176   27.1561 C   0  0  0  0  0  0  0  0  0  0  0  0
   -7.4446   -0.5334   27.9242 C   0  0  0  0  0  0  0  0  0  0  0  0
  -10.2372    1.6607   26.7361 C   0  0  0  0  0  0  0  0  0  0  0  0
   -3.9981    0.8977   28.5274 C   0  0  0  0  0  0  0  0  0  0  0  0
   -3.5846    0.4833   29.6345 O   0  0  0  0  0  0  0  0  0  0  0  0
   -3.2198    1.5082   27.7721 O   0  0  0  0  0  0  0  0  0  0  0  0
  -11.2730    3.8272   24.8619 C   0  0  0  0  0  0  0  0  0  0  0  0
  -12.4305    3.7178   25.4099 C   0  0  0  0  0  0  0  0  0  0  0  0
  -11.0818    3.7391   23.4470 C   0  0  0  0  0  0  0  0  0  0  0  0
  -13.5955    3.6608   24.6204 C   0  0  0  0  0  0  0  0  0  0  0  0
  -12.1604    3.7726   22.6205 C   0  0  0  0  0  0  0  0  0  0  0  0
  -13.4321    3.7075   23.2066 C   0  0  0  0  0  0  0  0  0  0  0  0
  -10.3114   -0.7070   27.3619 C   0  0  0  0  0  0  0  0  0  0  0  0
  -10.6885   -1.4302   26.5141 C   0  0  0  0  0  0  0  0  0  0  0  0
  -11.4357   -2.6283   26.7486 C   0  0  0  0  0  0  0  0  0  0  0  0
  -11.7267   -2.9564   28.0605 C   0  0  0  0  0  0  0  0  0  0  0  0
  -11.2612   -2.1721   29.1093 C   0  0  0  0  0  0  0  0  0  0  0  0
  -10.5394   -1.0016   28.8678 C   0  0  0  0  0  0  0  0  0  0  0  0
   -7.8541    6.6367   26.9031 N   0  0  0  0  0  0  0  0  0  0  0  0
   -8.6502    7.7736   27.1984 C   0  0  0  0  0  0  0  0  0  0  0  0
  -11.9514   -3.4499   25.6679 C   0  0  0  0  0  0  0  0  0  0  0  0
  -12.6782   -3.1103   24.8504 O   0  0  0  0  0  0  0  0  0  0  0  0
  -11.5181   -4.7257   25.5929 O   0  0  0  0  0  0  0  0  0  0  0  0
  9 15  1  0
 15 16  1  0
 15 17  2  0
  6 18  1  0
 12 24  1  0
  4 30  1  0
 30 31  1  0
 26 32  1  0
 32 33  1  0
 32 34  2  0
 24 25  2  0
 25 26  1  0
 26 27  2  0
 27 28  1  0
 28 29  2  0
 29 24  1  0
  1  2  2  0
  3  6  2  0
  6  5  1  0
  5  4  2  0
  4  1  1  0
  7  8  2  0
  8  9  1  0
  9 10  2  0
 10 13  1  0
 13 11  2  0
  2  3  1  0
  3 14  1  0
 14 12  2  0
 12 11  1  0
 11  7  1  0
  7  2  1  0
 18 19  2  0
 19 21  1  0
 21 23  2  0
 23 22  1  0
 22 20  2  0
 20 18  1  0
M  END
$$$$
