No_7897-complexes_sdf/6BKW-FPZ/2024-09-17-14-21-01/
     RDKit          3D

 16 17  0  0  0  0  0  0  0  0999 V2000
   -7.7129    4.2099   27.0854 C   0  0  0  0  0  0  0  0  0  0  0  0
   -8.9133    4.4736   27.0998 C   0  0  0  0  0  0  0  0  0  0  0  0
   -9.4643    5.5426   27.7628 C   0  0  0  0  0  0  0  0  0  0  0  0
   -6.8373    4.9942   27.9785 C   0  0  0  0  0  0  0  0  0  0  0  0
   -7.3717    6.0428   28.6744 C   0  0  0  0  0  0  0  0  0  0  0  0
   -8.6869    6.3937   28.5345 C   0  0  0  0  0  0  0  0  0  0  0  0
   -9.8077    3.6184   26.2213 C   0  0  0  0  0  0  0  0  0  0  0  0
   -9.9211    2.3431   26.3758 C   0  0  0  0  0  0  0  0  0  0  0  0
  -10.3690    1.4873   25.5845 C   0  0  0  0  0  0  0  0  0  0  0  0
  -10.4525    4.2452   25.1079 C   0  0  0  0  0  0  0  0  0  0  0  0
  -11.0925    3.4805   24.1815 C   0  0  0  0  0  0  0  0  0  0  0  0
  -11.0762    2.0715   24.3960 C   0  0  0  0  0  0  0  0  0  0  0  0
  -11.7856    1.2552   23.3987 C   0  0  0  0  0  0  0  0  0  0  0  0
  -11.7213    0.0455   23.2836 F   0  0  0  0  0  0  0  0  0  0  0  0
  -13.1285    1.5571   23.4782 F   0  0  0  0  0  0  0  0  0  0  0  0
  -11.4297    1.7475   22.1060 F   0  0  0  0  0  0  0  0  0  0  0  0
  2  7  1  0
 12 13  1  0
 13 14  1  0
 13 15  1  0
 13 16  1  0
  1  2  2  0
  2  3  1  0
  3  6  2  0
  6  5  1  0
  5  4  2  0
  4  1  1  0
  7  8  2  0
  8  9  1  0
  9 12  2  0
 12 11  1  0
 11 10  2  0
 10  7  1  0
M  END
$$$$
