No_7107-complexes_sdf/6BKW-FPZ/2024-09-17-14-21-01/
     RDKit          3D

 19 21  0  0  0  0  0  0  0  0999 V2000
   -7.9040    3.9820   27.1177 C   0  0  0  0  0  0  0  0  0  0  0  0
   -8.2057    2.8231   26.8733 C   0  0  0  0  0  0  0  0  0  0  0  0
   -7.0130    4.3706   28.1140 C   0  0  0  0  0  0  0  0  0  0  0  0
   -7.4093    1.7370   27.3857 C   0  0  0  0  0  0  0  0  0  0  0  0
   -6.3229    1.9496   27.4517 C   0  0  0  0  0  0  0  0  0  0  0  0
   -5.9229    3.3526   28.0834 C   0  0  0  0  0  0  0  0  0  0  0  0
   -8.8349    5.2982   26.9446 C   0  0  0  0  0  0  0  0  0  0  0  0
   -8.8290    6.3223   27.6700 N   0  0  0  0  0  0  0  0  0  0  0  0
   -9.2861    5.4121   25.6427 N   0  0  0  0  0  0  0  0  0  0  0  0
   -5.3040    0.9175   27.9709 C   0  0  0  0  0  0  0  0  0  0  0  0
   -5.5698   -0.4099   27.8177 C   0  0  0  0  0  0  0  0  0  0  0  0
   -6.9841   -0.6461   27.5646 C   0  0  0  0  0  0  0  0  0  0  0  0
   -7.8476    0.3350   27.1821 C   0  0  0  0  0  0  0  0  0  0  0  0
   -4.6561   -1.4414   28.1000 C   0  0  0  0  0  0  0  0  0  0  0  0
   -4.6442   -2.4297   27.6391 C   0  0  0  0  0  0  0  0  0  0  0  0
   -3.6293   -3.5097   27.8143 C   0  0  0  0  0  0  0  0  0  0  0  0
   -2.5788   -3.2061   28.6952 C   0  0  0  0  0  0  0  0  0  0  0  0
   -2.5651   -1.9696   29.3384 C   0  0  0  0  0  0  0  0  0  0  0  0
   -3.5482   -1.0263   29.0641 C   0  0  0  0  0  0  0  0  0  0  0  0
  1  7  1  0
  7  8  2  0
  7  9  1  0
 11 14  1  0
  1  2  2  0
  2  4  1  0
  5  6  1  0
  6  3  2  0
  3  1  1  0
 14 15  2  0
 15 16  1  0
 16 17  2  0
 17 18  1  0
 18 19  2  0
 19 14  1  0
  4  5  2  0
  5 10  1  0
 10 11  2  0
 11 12  1  0
 12 13  2  0
 13  4  1  0
M  END
$$$$
