No_7120-complexes_sdf/6BKW-FPZ/2024-09-17-14-21-01/
     RDKit          3D

 12 11  0  0  0  0  0  0  0  0999 V2000
   -7.2496    3.8871   27.4508 C   0  0  0  0  0  0  0  0  0  0  0  0
   -7.9379    4.9063   27.8518 C   0  0  0  0  0  0  0  0  0  0  0  0
   -7.5112    6.1898   27.6280 C   0  0  0  0  0  0  0  0  0  0  0  0
   -7.8078    2.6331   27.2522 C   0  0  2  0  0  0  0  0  0  0  0  0
   -7.1538    1.5087   26.7509 C   0  0  0  0  0  0  0  0  0  0  0  0
   -9.2627    2.5305   27.2363 C   0  0  0  0  0  0  0  0  0  0  0  0
   -9.9238    2.9139   26.5039 C   0  0  0  0  0  0  0  0  0  0  0  0
   -9.6613    3.4196   25.3796 C   0  0  0  0  0  0  0  0  0  0  0  0
  -10.6742    3.5479   24.2347 C   0  0  0  0  0  0  0  0  0  0  0  0
  -10.8961    2.6382   23.6303 C   0  0  0  0  0  0  0  0  0  0  0  0
  -11.6941    2.6975   22.4636 C   0  0  0  0  0  0  0  0  0  0  0  0
  -11.9455    1.6008   21.5875 C   0  0  0  0  0  0  0  0  0  0  0  0
  1  2  1  0
  2  3  2  0
  1  4  1  0
  4  5  1  6
  4  6  1  0
  6  7  1  0
  7  8  1  0
  8  9  1  0
  9 10  1  0
 10 11  2  3
 11 12  1  0
M  END
$$$$
