No_7444-complexes_sdf/6BKW-FPZ/2024-09-17-14-21-01/
     RDKit          3D

 15 16  0  0  0  0  0  0  0  0999 V2000
   -7.9040    3.9820   27.1177 C   0  0  0  0  0  0  0  0  0  0  0  0
   -7.8663    4.8694   27.9238 C   0  0  0  0  0  0  0  0  0  0  0  0
   -9.0953    3.1697   27.0532 C   0  0  0  0  0  0  0  0  0  0  0  0
  -10.1313    3.4052   27.8871 C   0  0  0  0  0  0  0  0  0  0  0  0
  -10.1178    4.5885   28.6885 C   0  0  0  0  0  0  0  0  0  0  0  0
   -8.9412    5.2994   28.7548 C   0  0  0  0  0  0  0  0  0  0  0  0
   -9.0691    1.9565   26.1695 C   0  0  0  0  0  0  0  0  0  0  0  0
   -8.4257    0.8037   26.4340 C   0  0  0  0  0  0  0  0  0  0  0  0
   -9.6932    2.1225   24.9256 C   0  0  0  0  0  0  0  0  0  0  0  0
   -9.6437    1.1705   23.9409 C   0  0  0  0  0  0  0  0  0  0  0  0
   -8.3687   -0.2392   25.5341 C   0  0  0  0  0  0  0  0  0  0  0  0
   -8.9903   -0.0407   24.2532 C   0  0  0  0  0  0  0  0  0  0  0  0
  -11.3308    2.5776   27.8838 C   0  0  0  0  0  0  0  0  0  0  0  0
  -11.3844    1.4097   27.9983 C   0  0  0  0  0  0  0  0  0  0  0  0
  -12.5247    0.5532   28.1120 C   0  0  0  0  0  0  0  0  0  0  0  0
  3  7  1  0
  4 13  1  0
 13 14  2  3
 14 15  1  0
  1  2  2  0
  2  6  1  0
  6  5  2  0
  5  4  1  0
  4  3  2  0
  3  1  1  0
  7  8  2  0
  8 11  1  0
 11 12  2  0
 12 10  1  0
 10  9  2  0
  9  7  1  0
M  END
$$$$
