No_7123-complexes_sdf/6BKW-FPZ/2024-09-17-14-21-01/
     RDKit          3D

 16 17  0  0  0  0  0  0  0  0999 V2000
   -7.9040    3.9820   27.1177 C   0  0  0  0  0  0  0  0  0  0  0  0
   -7.8663    4.8694   27.9238 C   0  0  0  0  0  0  0  0  0  0  0  0
   -9.0491    3.8523   26.2542 C   0  0  0  0  0  0  0  0  0  0  0  0
   -9.4067    2.6808   25.6532 C   0  0  0  0  0  0  0  0  0  0  0  0
   -8.5275    6.1191   27.7061 C   0  0  0  0  0  0  0  0  0  0  0  0
  -10.3221    2.7328   24.5970 C   0  0  0  0  0  0  0  0  0  0  0  0
  -10.8248    4.0079   24.2320 C   0  0  0  0  0  0  0  0  0  0  0  0
  -10.3271    5.1638   24.8387 C   0  0  0  0  0  0  0  0  0  0  0  0
   -9.3795    5.1413   25.7597 C   0  0  0  0  0  0  0  0  0  0  0  0
   -9.2626    6.2968   26.5932 C   0  0  0  0  0  0  0  0  0  0  0  0
   -7.2811    2.6258   27.5725 C   0  0  0  0  0  0  0  0  0  0  0  0
   -6.7548    1.8020   27.1713 C   0  0  0  0  0  0  0  0  0  0  0  0
   -6.0949    0.5826   27.7746 C   0  0  0  0  0  0  0  0  0  0  0  0
   -4.8949    0.8940   28.4036 C   0  0  0  0  0  0  0  0  0  0  0  0
   -4.2115   -0.1283   29.2006 C   0  0  0  0  0  0  0  0  0  0  0  0
   -3.0920    0.2048   29.9703 C   0  0  0  0  0  0  0  0  0  0  0  0
  1 11  1  0
 11 12  2  3
 12 13  1  0
 13 14  2  3
 14 15  1  0
 15 16  3  0
  3  4  2  0
  4  6  1  0
  6  7  2  0
  7  8  1  0
  8  9  2  0
  1  2  2  0
  2  5  1  0
  5 10  2  0
 10  9  1  0
  9  3  1  0
  3  1  1  0
M  END
$$$$
