No_7591-complexes_sdf/6BKW-FPZ/2024-09-17-14-21-01/
     RDKit          3D

 17 18  0  0  0  0  0  0  0  0999 V2000
   -7.9040    3.9820   27.1177 C   0  0  0  0  0  0  0  0  0  0  0  0
   -8.2057    2.8231   26.8733 C   0  0  0  0  0  0  0  0  0  0  0  0
   -9.2962    2.4021   26.1155 C   0  0  0  0  0  0  0  0  0  0  0  0
   -8.7358    5.0662   26.5917 C   0  0  0  0  0  0  0  0  0  0  0  0
   -8.4603    6.4492   26.8781 C   0  0  0  0  0  0  0  0  0  0  0  0
  -10.1146    3.3815   25.6105 C   0  0  0  0  0  0  0  0  0  0  0  0
   -9.8194    4.7235   25.8263 C   0  0  0  0  0  0  0  0  0  0  0  0
   -8.3051    7.4484   26.0269 C   0  0  0  0  0  0  0  0  0  0  0  0
   -8.0035    8.7269   26.7043 C   0  0  0  0  0  0  0  0  0  0  0  0
   -7.2985    1.6682   27.4100 C   0  0  0  0  0  0  0  0  0  0  0  0
   -6.7075    0.8807   26.9242 N   0  0  0  0  0  0  0  0  0  0  0  0
   -5.7658    0.1428   27.6234 C   0  0  0  0  0  0  0  0  0  0  0  0
   -4.6116    0.3746   27.6049 C   0  0  0  0  0  0  0  0  0  0  0  0
   -3.5487   -0.2770   28.4130 C   0  0  0  0  0  0  0  0  0  0  0  0
   -3.9838   -1.2585   29.2847 C   0  0  0  0  0  0  0  0  0  0  0  0
   -6.0723   -0.9221   28.5573 C   0  0  0  0  0  0  0  0  0  0  0  0
   -5.2781   -1.5528   29.3193 C   0  0  0  0  0  0  0  0  0  0  0  0
  4  5  1  0
  5  8  2  3
  8  9  1  0
  2 10  1  0
 10 11  1  0
 11 12  1  0
  1  2  2  0
  2  3  1  0
  3  6  2  0
  6  7  1  0
  7  4  2  0
  4  1  1  0
 12 13  2  0
 13 14  1  0
 14 15  2  0
 15 17  1  0
 17 16  2  0
 16 12  1  0
M  END
$$$$
