No_7144-complexes_sdf/6BKW-FPZ/2024-09-17-14-21-01/
     RDKit          3D

 10 10  0  0  0  0  0  0  0  0999 V2000
   -7.2496    3.8871   27.4508 C   0  0  0  0  0  0  0  0  0  0  0  0
   -7.6161    2.7143   27.1523 C   0  0  0  0  0  0  0  0  0  0  0  0
   -7.1619    1.8631   27.5232 C   0  0  0  0  0  0  0  0  0  0  0  0
   -8.0036    5.1085   27.2100 C   0  0  0  0  0  0  0  0  0  0  0  0
   -9.1035    5.1173   26.6797 C   0  0  0  0  0  0  0  0  0  0  0  0
   -9.6475    3.9397   26.1445 C   0  0  0  0  0  0  0  0  0  0  0  0
   -8.9486    2.7270   26.4505 C   0  0  0  0  0  0  0  0  0  0  0  0
   -5.7335    1.7969   28.0187 C   0  0  0  0  0  0  0  0  0  0  0  0
   -5.1076    0.4935   28.3486 C   0  0  0  0  0  0  0  0  0  0  0  0
   -5.8290   -0.6273   28.2101 C   0  0  0  0  0  0  0  0  0  0  0  0
  3  8  1  0
  8  9  2  3
  9 10  1  0
  3  2  1  0
  1  2  2  0
  2  7  1  0
  7  6  2  0
  6  5  1  0
  5  4  2  0
  4  1  1  0
M  END
$$$$
