No_7923-complexes_sdf/6BKW-FPZ/2024-09-17-14-21-01/
     RDKit          3D

  6  5  0  0  0  0  0  0  0  0999 V2000
   -7.9040    3.9820   27.1177 C   0  0  0  0  0  0  0  0  0  0  0  0
   -9.0711    4.3164   27.0630 C   0  0  0  0  0  0  0  0  0  0  0  0
   -9.5294    5.4517   27.7215 C   0  0  0  0  0  0  0  0  0  0  0  0
   -7.4498    2.6761   26.6186 C   0  0  0  0  0  0  0  0  0  0  0  0
   -8.3951    1.8218   26.1107 C   0  0  0  0  0  0  0  0  0  0  0  0
   -9.7008    2.2909   25.9503 C   0  0  0  0  0  0  0  0  0  0  0  0
  1  2  1  0
  2  3  3  0
  1  4  2  3
  4  5  1  0
  5  6  2  0
M  END
$$$$
