No_7076-complexes_sdf/6BKW-FPZ/2024-09-17-14-21-01/
     RDKit          3D

 24 27  0  0  0  0  0  0  0  0999 V2000
   -7.9040    3.9820   27.1177 C   0  0  0  0  0  0  0  0  0  0  0  0
   -7.8663    4.8694   27.9238 C   0  0  0  0  0  0  0  0  0  0  0  0
   -9.0491    3.8523   26.2542 C   0  0  0  0  0  0  0  0  0  0  0  0
   -8.7661    5.9491   27.9690 C   0  0  0  0  0  0  0  0  0  0  0  0
   -9.9295    4.8502   26.2323 C   0  0  0  0  0  0  0  0  0  0  0  0
   -9.8077    5.9288   27.0933 C   0  0  0  0  0  0  0  0  0  0  0  0
   -6.9606    2.7994   27.1981 C   0  0  0  0  0  0  0  0  0  0  0  0
   -7.3659    1.5557   26.7971 N   0  0  0  0  0  0  0  0  0  0  0  0
   -5.9859    2.8499   28.0149 O   0  0  0  0  0  0  0  0  0  0  0  0
   -6.5780    0.3455   26.9533 C   0  0  0  0  0  0  0  0  0  0  0  0
   -7.0649   -0.6844   26.2367 C   0  0  1  0  0  0  0  0  0  0  0  0
   -7.9044   -0.4951   25.3853 C   0  0  0  0  0  0  0  0  0  0  0  0
   -8.7732    0.6222   25.2299 C   0  0  0  0  0  0  0  0  0  0  0  0
   -8.3634    1.6243   25.8972 C   0  0  1  0  0  0  0  0  0  0  0  0
   -9.2600    2.7040   25.5941 N   0  0  0  0  0  0  0  0  0  0  0  0
   -6.2679   -1.9370   26.4869 C   0  0  1  0  0  0  0  0  0  0  0  0
   -6.5382   -2.7150   27.3001 C   0  0  0  0  0  0  0  0  0  0  0  0
   -7.3934   -2.4656   28.3300 C   0  0  0  0  0  0  0  0  0  0  0  0
   -7.7569   -2.7823   29.2583 C   0  0  0  0  0  0  0  0  0  0  0  0
   -7.0781   -3.8489   29.9775 C   0  0  0  0  0  0  0  0  0  0  0  0
   -6.0915   -4.4159   29.1208 C   0  0  0  0  0  0  0  0  0  0  0  0
   -5.7090   -3.8095   27.9743 C   0  0  0  0  0  0  0  0  0  0  0  0
   -5.2028   -2.2675   25.4625 C   0  0  0  0  0  0  0  0  0  0  0  0
   -4.1077   -2.3601   25.6615 O   0  0  0  0  0  0  0  0  0  0  0  0
  1  7  1  0
  7  8  1  0
  7  9  2  0
  8 10  1  0
 11 10  1  6
 11 12  1  0
  8 14  1  0
 14 13  1  1
  3 15  1  0
 14 15  1  0
 11 16  1  0
 16 17  1  0
 16 23  1  6
 23 24  2  0
 12 13  1  0
  1  2  2  0
  2  4  1  0
  4  6  2  0
  6  5  1  0
  5  3  2  0
  3  1  1  0
 17 18  2  0
 18 19  1  0
 19 20  2  0
 20 21  1  0
 21 22  2  0
 22 17  1  0
M  END
$$$$
