No_7496-complexes_sdf/6BKW-FPZ/2024-09-17-14-21-01/
     RDKit          3D

 40 46  0  0  0  0  0  0  0  0999 V2000
   -7.9040    3.9820   27.1177 C   0  0  0  0  0  0  0  0  0  0  0  0
   -9.0711    4.3164   27.0630 C   0  0  0  0  0  0  0  0  0  0  0  0
   -9.8698    3.9665   25.9494 C   0  0  0  0  0  0  0  0  0  0  0  0
   -7.4087    3.0336   26.9775 C   0  0  0  0  0  0  0  0  0  0  0  0
   -8.2557    2.0366   26.1319 C   0  0  0  0  0  0  0  0  0  0  0  0
   -9.4315    2.6210   25.6674 C   0  0  0  0  0  0  0  0  0  0  0  0
   -6.2974    2.2220   27.4942 C   0  0  0  0  0  0  0  0  0  0  0  0
   -6.0054    0.9586   27.3903 N   0  0  0  0  0  0  0  0  0  0  0  0
   -5.2566    2.9886   28.0817 N   0  0  0  0  0  0  0  0  0  0  0  0
   -5.0680    0.2921   27.9571 C   0  0  0  0  0  0  0  0  0  0  0  0
   -5.1394   -1.1146   28.1459 C   0  0  0  0  0  0  0  0  0  0  0  0
   -3.9815    0.9602   28.7165 C   0  0  0  0  0  0  0  0  0  0  0  0
   -3.0334    0.3085   29.3051 N   0  0  0  0  0  0  0  0  0  0  0  0
   -4.2051    2.3691   28.6861 N   0  0  0  0  0  0  0  0  0  0  0  0
   -4.0972   -1.7647   28.7307 C   0  0  0  0  0  0  0  0  0  0  0  0
   -3.0797   -1.0170   29.4120 C   0  0  0  0  0  0  0  0  0  0  0  0
  -10.1888    1.8159   24.6587 C   0  0  0  0  0  0  0  0  0  0  0  0
  -11.0136    2.2893   23.8843 C   0  0  0  0  0  0  0  0  0  0  0  0
  -11.7400    1.5172   22.8728 C   0  0  0  0  0  0  0  0  0  0  0  0
  -11.3807    0.1699   22.7641 C   0  0  0  0  0  0  0  0  0  0  0  0
   -9.8803    0.4944   24.3937 C   0  0  0  0  0  0  0  0  0  0  0  0
  -10.4129   -0.3023   23.5237 C   0  0  0  0  0  0  0  0  0  0  0  0
   -9.6216    5.4665   27.5176 C   0  0  0  0  0  0  0  0  0  0  0  0
   -2.0503   -1.6658   30.0360 N   0  0  0  0  0  0  0  0  0  0  0  0
   -2.1078   -1.9149   31.3679 C   0  0  0  0  0  0  0  0  0  0  0  0
   -0.8992   -2.0425   29.3511 C   0  0  0  0  0  0  0  0  0  0  0  0
   -2.8120   -3.0467   31.8297 C   0  0  0  0  0  0  0  0  0  0  0  0
   -3.5166   -3.1320   32.7213 C   0  0  0  0  0  0  0  0  0  0  0  0
   -3.8035   -1.9416   33.5469 C   0  0  0  0  0  0  0  0  0  0  0  0
   -3.0356   -0.7690   33.3078 C   0  0  0  0  0  0  0  0  0  0  0  0
   -2.7436   -0.5896   32.0322 C   0  0  0  0  0  0  0  0  0  0  0  0
   -0.7565   -1.7639   28.0974 C   0  0  0  0  0  0  0  0  0  0  0  0
    0.1667   -2.7365   30.0360 C   0  0  0  0  0  0  0  0  0  0  0  0
    1.3172   -3.0567   29.4024 C   0  0  0  0  0  0  0  0  0  0  0  0
    0.4302   -2.1149   27.3633 C   0  0  0  0  0  0  0  0  0  0  0  0
    1.4765   -2.7353   28.0408 C   0  0  0  0  0  0  0  0  0  0  0  0
   -2.5113   -4.2518   31.0470 C   0  0  0  0  0  0  0  0  0  0  0  0
   -2.6837   -5.3539   31.4815 C   0  0  0  0  0  0  0  0  0  0  0  0
   -3.5744   -5.4515   32.6536 C   0  0  0  0  0  0  0  0  0  0  0  0
   -3.9729   -4.3374   33.3158 C   0  0  0  0  0  0  0  0  0  0  0  0
  4  7  1  0
  6 17  1  0
  2 23  1  0
 16 24  1  0
 24 25  1  0
 24 26  1  0
 25 27  2  0
 28 29  2  0
 29 30  1  0
 30 31  2  0
 31 25  1  0
 17 18  2  0
 18 19  1  0
 19 20  2  0
 20 22  1  0
 22 21  2  0
 21 17  1  0
  1  2  2  0
  2  3  1  0
  3  6  2  0
  6  5  1  0
  5  4  2  0
  4  1  1  0
 10 11  2  0
 11 15  1  0
 15 16  2  0
 16 13  1  0
 13 12  2  0
 27 28  1  0
 28 40  1  0
 40 39  2  0
 39 38  1  0
 38 37  2  0
 37 27  1  0
 26 32  2  0
 32 35  1  0
 35 36  2  0
 36 34  1  0
 34 33  2  0
 33 26  1  0
  7  8  2  0
  8 10  1  0
 10 12  1  0
 12 14  1  0
 14  9  2  0
  9  7  1  0
M  END
$$$$
