No_7042-complexes_sdf/6BKW-FPZ/2024-09-17-14-21-01/
     RDKit          3D

 20 22  0  0  0  0  0  0  0  0999 V2000
   -7.2496    3.8871   27.4508 C   0  0  0  0  0  0  0  0  0  0  0  0
   -8.5096    4.0291   27.2770 C   0  0  0  0  0  0  0  0  0  0  0  0
   -9.2677    5.1714   27.5773 C   0  0  0  0  0  0  0  0  0  0  0  0
   -6.6520    2.6709   27.2675 N   0  0  0  0  0  0  0  0  0  0  0  0
   -7.5994    1.7987   26.9861 C   0  0  0  0  0  0  0  0  0  0  0  0
   -7.6368    0.4853   26.7528 C   0  0  0  0  0  0  0  0  0  0  0  0
   -8.8205    2.6193   26.9560 C   0  0  0  0  0  0  0  0  0  0  0  0
   -9.2581    6.1025   26.6173 C   0  0  0  0  0  0  0  0  0  0  0  0
   -6.6644   -0.2671   27.3514 C   0  0  0  0  0  0  0  0  0  0  0  0
   -5.6115    0.3763   28.1651 C   0  0  0  0  0  0  0  0  0  0  0  0
   -4.6210    0.3825   27.9559 C   0  0  0  0  0  0  0  0  0  0  0  0
   -3.9391   -0.2285   26.8261 C   0  0  0  0  0  0  0  0  0  0  0  0
   -4.7128   -1.0519   26.0354 C   0  0  0  0  0  0  0  0  0  0  0  0
   -6.1089   -0.8536   26.2083 C   0  0  0  0  0  0  0  0  0  0  0  0
   -6.9523   -1.4456   25.1844 C   0  0  0  0  0  0  0  0  0  0  0  0
   -6.6342   -1.9914   24.3071 C   0  0  0  0  0  0  0  0  0  0  0  0
   -8.3791   -1.1984   25.3406 C   0  0  0  0  0  0  0  0  0  0  0  0
   -8.7176    0.0084   26.0501 C   0  0  0  0  0  0  0  0  0  0  0  0
   -8.5408    7.3812   27.0365 C   0  0  0  0  0  0  0  0  0  0  0  0
   -6.0193   -3.2192   24.2521 C   0  0  0  0  0  0  0  0  0  0  0  0
  1  2  1  0
  2  3  2  3
  1  4  1  0
  4  5  1  0
  5  6  1  0
  2  7  1  0
  5  7  1  0
  3  8  1  0
  8 19  1  0
 16 20  1  0
 16 15  1  0
  6  9  1  0
 14 15  1  0
 15 17  2  0
 17 18  1  0
 18  6  2  0
  9 10  2  0
 10 11  1  0
 11 12  2  0
 12 13  1  0
 13 14  2  0
 14  9  1  0
M  END
$$$$
