No_7984-complexes_sdf/6BKW-FPZ/2024-09-17-14-21-01/
     RDKit          3D

 28 33  0  0  0  0  0  0  0  0999 V2000
   -7.7129    4.2099   27.0854 C   0  0  0  0  0  0  0  0  0  0  0  0
   -7.7814    5.1722   27.8972 C   0  0  0  0  0  0  0  0  0  0  0  0
   -7.3155    2.9700   27.6145 C   0  0  0  0  0  0  0  0  0  0  0  0
   -7.6814    1.8188   26.9581 C   0  0  0  0  0  0  0  0  0  0  0  0
   -8.6377    1.9131   25.9324 C   0  0  0  0  0  0  0  0  0  0  0  0
   -9.1866    3.0673   25.6037 C   0  0  0  0  0  0  0  0  0  0  0  0
   -8.8394    4.1752   26.2513 C   0  0  0  0  0  0  0  0  0  0  0  0
   -7.0891    5.2647   29.0138 N   0  0  0  0  0  0  0  0  0  0  0  0
   -8.1317    6.5145   27.3039 C   0  0  0  0  0  0  0  0  0  0  0  0
   -8.7641    7.1679   26.6361 C   0  0  0  0  0  0  0  0  0  0  0  0
   -9.6941    6.6179   25.9541 N   0  0  0  0  0  0  0  0  0  0  0  0
   -9.4812    5.2505   25.4784 C   0  0  0  0  0  0  0  0  0  0  0  0
  -10.2121    4.6519   24.5714 N   0  0  0  0  0  0  0  0  0  0  0  0
  -10.0120    3.3752   24.5724 C   0  0  0  0  0  0  0  0  0  0  0  0
   -7.0564    0.5151   27.3640 C   0  0  0  0  0  0  0  0  0  0  0  0
   -7.7215   -0.6697   27.2656 C   0  0  0  0  0  0  0  0  0  0  0  0
   -9.0854   -0.7001   26.8501 C   0  0  0  0  0  0  0  0  0  0  0  0
   -9.8040   -1.8057   26.8442 C   0  0  0  0  0  0  0  0  0  0  0  0
  -11.1715   -1.6813   26.6249 C   0  0  0  0  0  0  0  0  0  0  0  0
  -11.7106   -0.4550   26.2883 C   0  0  0  0  0  0  0  0  0  0  0  0
  -10.9831    0.6615   26.3174 C   0  0  0  0  0  0  0  0  0  0  0  0
   -9.6770    0.6395   26.6995 C   0  0  0  0  0  0  0  0  0  0  0  0
  -10.6255    2.5057   23.5646 C   0  0  0  0  0  0  0  0  0  0  0  0
   -9.8390    1.7930   22.8184 N   0  0  0  0  0  0  0  0  0  0  0  0
  -10.3367    0.8824   21.9246 C   0  0  0  0  0  0  0  0  0  0  0  0
  -11.9749    2.5088   23.3503 C   0  0  0  0  0  0  0  0  0  0  0  0
  -12.5369    1.6617   22.3926 C   0  0  0  0  0  0  0  0  0  0  0  0
  -11.6685    0.8465   21.6666 C   0  0  0  0  0  0  0  0  0  0  0  0
  1  2  1  0
  2  8  2  0
  2  9  1  0
  9 10  2  0
 10 11  1  0
  7 12  1  0
 11 12  1  0
 12 13  2  0
  6 14  1  0
 13 14  1  0
 14 23  1  0
 17 18  1  0
 18 19  2  0
 19 20  1  0
 20 21  2  0
 21 22  1  0
 23 24  2  0
 24 25  1  0
 25 28  2  0
 28 27  1  0
 27 26  2  0
 26 23  1  0
  5 22  2  0
 22 17  1  0
 17 16  2  0
 16 15  1  0
 15  4  2  0
  1  3  2  0
  3  4  1  0
  4  5  1  0
  5  6  1  0
  6  7  2  0
  7  1  1  0
M  END
$$$$
