No_7641-complexes_sdf/6BKW-FPZ/2024-09-17-14-21-01/
     RDKit          3D

 16 17  0  0  0  0  0  0  0  0999 V2000
   -7.9040    3.9820   27.1177 C   0  0  0  0  0  0  0  0  0  0  0  0
   -8.2057    2.8231   26.8733 C   0  0  0  0  0  0  0  0  0  0  0  0
   -7.0130    4.3706   28.1140 C   0  0  0  0  0  0  0  0  0  0  0  0
   -7.4093    1.7370   27.3857 C   0  0  0  0  0  0  0  0  0  0  0  0
   -7.7256    0.3814   27.1250 C   0  0  0  0  0  0  0  0  0  0  0  0
   -6.8108    5.7768   28.4112 C   0  0  0  0  0  0  0  0  0  0  0  0
   -8.6926    5.1124   26.6024 C   0  0  0  0  0  0  0  0  0  0  0  0
   -8.5621    6.4318   26.8982 C   0  0  0  0  0  0  0  0  0  0  0  0
   -7.5755    6.7306   27.8511 C   0  0  0  0  0  0  0  0  0  0  0  0
   -8.9672    2.3416   25.7877 C   0  0  0  0  0  0  0  0  0  0  0  0
   -9.2613    1.1046   25.3852 C   0  0  0  0  0  0  0  0  0  0  0  0
   -8.5697    0.1324   26.0583 C   0  0  0  0  0  0  0  0  0  0  0  0
  -10.1523    0.8464   24.2810 C   0  0  0  0  0  0  0  0  0  0  0  0
   -9.7092    1.0315   22.9907 C   0  0  0  0  0  0  0  0  0  0  0  0
  -10.4611    1.0166   21.8242 C   0  0  0  0  0  0  0  0  0  0  0  0
   -9.9004    1.2611   20.5730 C   0  0  0  0  0  0  0  0  0  0  0  0
  1  2  1  0
 11 13  1  0
 13 14  1  0
 14 15  2  3
 15 16  1  0
  1  3  2  0
  3  6  1  0
  6  9  2  0
  9  8  1  0
  8  7  2  0
  7  1  1  0
  2  4  2  0
  4  5  1  0
  5 12  2  0
 12 11  1  0
 11 10  2  0
 10  2  1  0
M  END
$$$$
