No_7256-complexes_sdf/6BKW-FPZ/2024-09-17-14-21-01/
     RDKit          3D

 16 17  0  0  0  0  0  0  0  0999 V2000
   -7.9040    3.9820   27.1177 C   0  0  0  0  0  0  0  0  0  0  0  0
   -7.8663    4.8694   27.9238 C   0  0  0  0  0  0  0  0  0  0  0  0
   -9.0491    3.8523   26.2542 C   0  0  0  0  0  0  0  0  0  0  0  0
   -8.7661    5.9491   27.9690 C   0  0  0  0  0  0  0  0  0  0  0  0
   -9.9295    4.8502   26.2323 C   0  0  0  0  0  0  0  0  0  0  0  0
   -9.8077    5.9288   27.0933 C   0  0  0  0  0  0  0  0  0  0  0  0
   -6.9996    2.9096   27.1565 O   0  0  0  0  0  0  0  0  0  0  0  0
   -7.3398    1.5998   26.9303 C   0  0  0  0  0  0  0  0  0  0  0  0
   -8.4690    1.2494   26.3568 C   0  0  0  0  0  0  0  0  0  0  0  0
   -9.3723    2.4824   25.7650 C   0  0  0  0  0  0  0  0  0  0  0  0
   -6.2506    0.7277   27.2606 C   0  0  1  0  0  0  0  0  0  0  0  0
   -4.8593    1.3401   27.9667 Cl  0  0  0  0  0  0  0  0  0  0  0  0
   -6.5681   -0.5712   27.8558 C   0  0  0  0  0  0  0  0  0  0  0  0
   -5.9619   -1.4409   27.4943 C   0  0  0  0  0  0  0  0  0  0  0  0
   -4.7124   -1.2589   26.7492 C   0  0  0  0  0  0  0  0  0  0  0  0
   -3.6040   -0.5138   27.1009 C   0  0  0  0  0  0  0  0  0  0  0  0
  1  7  1  0
  7  8  1  0
  8  9  2  0
  3 10  1  0
  9 10  1  0
  8 11  1  0
 11 12  1  1
 11 13  1  0
 13 14  2  3
 14 15  1  0
 15 16  1  0
  1  2  2  0
  2  4  1  0
  4  6  2  0
  6  5  1  0
  5  3  2  0
  3  1  1  0
M  END
$$$$
