No_7085-complexes_sdf/6BKW-FPZ/2024-09-17-14-21-01/
     RDKit          3D

 22 24  0  0  0  0  0  0  0  0999 V2000
   -7.9040    3.9820   27.1177 C   0  0  0  0  0  0  0  0  0  0  0  0
   -8.2057    2.8231   26.8733 C   0  0  0  0  0  0  0  0  0  0  0  0
   -9.2962    2.4021   26.1155 C   0  0  0  0  0  0  0  0  0  0  0  0
   -8.8403    4.9695   26.9329 C   0  0  0  0  0  0  0  0  0  0  0  0
   -9.9203    4.6961   26.0942 C   0  0  0  0  0  0  0  0  0  0  0  0
  -10.1704    3.4287   25.7979 C   0  0  0  0  0  0  0  0  0  0  0  0
   -8.4389    6.6456   27.2707 Cl  0  0  0  0  0  0  0  0  0  0  0  0
   -7.2075    1.6794   27.2570 C   0  0  0  0  0  0  0  0  0  0  0  0
   -7.4520    0.3421   27.1384 C   0  0  0  0  0  0  0  0  0  0  0  0
   -6.5152   -0.5801   27.4967 C   0  0  0  0  0  0  0  0  0  0  0  0
   -5.3076   -0.1382   28.0961 C   0  0  0  0  0  0  0  0  0  0  0  0
   -5.0684    1.2335   28.2388 C   0  0  0  0  0  0  0  0  0  0  0  0
   -5.9179    2.1070   27.8368 C   0  0  0  0  0  0  0  0  0  0  0  0
   -4.3267   -1.1611   28.5969 C   0  0  2  0  0  0  0  0  0  0  0  0
   -4.0983   -1.2808   29.8890 C   0  0  0  0  0  0  0  0  0  0  0  0
   -3.0966   -2.1932   30.4045 C   0  0  0  0  0  0  0  0  0  0  0  0
   -2.8568   -2.3057   31.8092 C   0  0  0  0  0  0  0  0  0  0  0  0
   -3.5258   -1.4585   32.7258 C   0  0  0  0  0  0  0  0  0  0  0  0
   -4.4340   -0.5225   32.2422 C   0  0  0  0  0  0  0  0  0  0  0  0
   -4.6884   -0.3778   30.9044 C   0  0  0  0  0  0  0  0  0  0  0  0
   -3.0421   -0.8372   27.8206 C   0  0  0  0  0  0  0  0  0  0  0  0
   -2.6987   -1.7809   26.8726 C   0  0  0  0  0  0  0  0  0  0  0  0
  4  7  1  0
  2  8  1  0
 11 14  1  0
 14 21  1  6
 21 22  1  0
 14 15  1  0
 15 16  2  0
 16 17  1  0
 17 18  2  0
 18 19  1  0
 19 20  2  0
 20 15  1  0
  1  2  2  0
  2  3  1  0
  3  6  2  0
  6  5  1  0
  5  4  2  0
  4  1  1  0
  8  9  2  0
  9 10  1  0
 10 11  2  0
 11 12  1  0
 12 13  2  0
 13  8  1  0
M  END
$$$$
