No_7912-complexes_sdf/6BKW-FPZ/2024-09-17-14-21-01/
     RDKit          3D

 24 27  0  0  0  0  0  0  0  0999 V2000
   -7.9040    3.9820   27.1177 C   0  0  0  0  0  0  0  0  0  0  0  0
   -8.2057    2.8231   26.8733 C   0  0  0  0  0  0  0  0  0  0  0  0
   -7.0130    4.3706   28.1140 C   0  0  0  0  0  0  0  0  0  0  0  0
   -9.3829    2.4374   26.1668 C   0  0  0  0  0  0  0  0  0  0  0  0
  -10.0151    3.2164   25.8460 C   0  0  0  0  0  0  0  0  0  0  0  0
   -9.8517    4.6499   25.9574 C   0  0  0  0  0  0  0  0  0  0  0  0
   -8.7642    5.0121   26.6984 C   0  0  0  0  0  0  0  0  0  0  0  0
   -8.5221    6.4142   26.9959 C   0  0  0  0  0  0  0  0  0  0  0  0
   -6.7969    5.7347   28.4918 C   0  0  0  0  0  0  0  0  0  0  0  0
   -9.4544    7.6713   26.3105 Cl  0  0  0  0  0  0  0  0  0  0  0  0
   -7.4639    6.6870   27.9174 C   0  0  0  0  0  0  0  0  0  0  0  0
   -9.5306    0.9323   25.8575 C   0  0  0  0  0  0  0  0  0  0  0  0
   -9.9781    0.5752   24.9286 C   0  0  0  0  0  0  0  0  0  0  0  0
  -10.4322    1.5290   23.8950 C   0  0  0  0  0  0  0  0  0  0  0  0
  -10.7727    2.9468   24.4605 C   0  0  0  0  0  0  0  0  0  0  0  0
  -11.4789    3.8723   23.6420 C   0  0  0  0  0  0  0  0  0  0  0  0
  -12.7287    4.0765   24.0196 C   0  0  0  0  0  0  0  0  0  0  0  0
  -10.8685    4.5149   22.5665 C   0  0  0  0  0  0  0  0  0  0  0  0
  -13.3717    3.6797   25.2300 C   0  0  0  0  0  0  0  0  0  0  0  0
  -14.6457    4.0050   25.5449 C   0  0  0  0  0  0  0  0  0  0  0  0
  -15.3611    4.7268   24.6189 C   0  0  0  0  0  0  0  0  0  0  0  0
  -14.8675    5.1836   23.4027 C   0  0  0  0  0  0  0  0  0  0  0  0
  -13.5425    4.8892   23.1357 C   0  0  0  0  0  0  0  0  0  0  0  0
  -11.3728    4.7611   21.3595 C   0  0  0  0  0  0  0  0  0  0  0  0
  8 10  1  0
 15 16  1  0
 16 17  1  0
 16 18  1  0
 18 24  2  0
 17 19  2  0
 19 20  1  0
 20 21  2  0
 21 22  1  0
 22 23  2  0
 23 17  1  0
  1  3  1  0
  3  9  2  0
  9 11  1  0
 11  8  2  0
  8  7  1  0
  5 15  2  0
 15 14  1  0
 14 13  2  0
 13 12  1  0
 12  4  2  0
  1  2  2  0
  2  4  1  0
  4  5  1  0
  5  6  1  0
  6  7  2  0
  7  1  1  0
M  END
$$$$
