No_7284-complexes_sdf/6BKW-FPZ/2024-09-17-14-21-01/
     RDKit          3D

 18 19  0  0  0  0  0  0  0  0999 V2000
   -7.9040    3.9820   27.1177 C   0  0  0  0  0  0  0  0  0  0  0  0
   -7.8663    4.8694   27.9238 C   0  0  0  0  0  0  0  0  0  0  0  0
   -7.4547    2.7080   27.4594 C   0  0  0  0  0  0  0  0  0  0  0  0
   -8.7044    6.0412   27.8492 C   0  0  0  0  0  0  0  0  0  0  0  0
   -6.9701    1.8932   27.0570 C   0  0  0  0  0  0  0  0  0  0  0  0
   -6.8967    0.5320   27.7576 C   0  0  0  0  0  0  0  0  0  0  0  0
   -8.6483    4.2137   25.9424 C   0  0  0  0  0  0  0  0  0  0  0  0
   -9.3761    5.3762   25.6610 C   0  0  0  0  0  0  0  0  0  0  0  0
   -9.2322    6.4207   26.6203 C   0  0  0  0  0  0  0  0  0  0  0  0
   -5.6166    0.0750   28.0520 C   0  0  0  0  0  0  0  0  0  0  0  0
   -5.3028   -1.1815   28.0524 C   0  0  0  0  0  0  0  0  0  0  0  0
   -6.3716   -2.1164   28.0467 C   0  0  0  0  0  0  0  0  0  0  0  0
   -7.6431   -1.7079   27.7023 C   0  0  0  0  0  0  0  0  0  0  0  0
   -7.9052   -0.3891   27.4726 C   0  0  0  0  0  0  0  0  0  0  0  0
   -4.4590    1.1116   28.2067 C   0  0  0  0  0  0  0  0  0  0  0  0
   -4.7022    2.2046   28.2543 F   0  0  0  0  0  0  0  0  0  0  0  0
   -3.7618    0.7429   29.3830 F   0  0  0  0  0  0  0  0  0  0  0  0
   -3.4988    0.7686   27.3170 F   0  0  0  0  0  0  0  0  0  0  0  0
  1  3  1  0
  3  5  3  0
  5  6  1  0
 10 15  1  0
 15 16  1  0
 15 17  1  0
 15 18  1  0
  1  2  2  0
  2  4  1  0
  4  9  2  0
  9  8  1  0
  8  7  2  0
  7  1  1  0
  6 10  2  0
 10 11  1  0
 11 12  2  0
 12 13  1  0
 13 14  2  0
 14  6  1  0
M  END
$$$$
