No_7028-complexes_sdf/6BKW-FPZ/2024-09-17-14-21-01/
     RDKit          3D

 20 21  0  0  0  0  0  0  0  0999 V2000
   -7.9040    3.9820   27.1177 C   0  0  0  0  0  0  0  0  0  0  0  0
   -9.0711    4.3164   27.0630 C   0  0  0  0  0  0  0  0  0  0  0  0
   -9.8698    3.9665   25.9495 C   0  0  0  0  0  0  0  0  0  0  0  0
   -7.0332    4.5030   28.2025 C   0  0  2  0  0  0  0  0  0  0  0  0
   -9.4357    2.9501   25.1393 C   0  0  0  0  0  0  0  0  0  0  0  0
   -8.2567    2.3218   25.4797 C   0  0  0  0  0  0  0  0  0  0  0  0
   -7.5105    2.7966   26.5752 C   0  0  0  0  0  0  0  0  0  0  0  0
  -10.2472    2.5204   24.0264 C   0  0  0  0  0  0  0  0  0  0  0  0
  -10.1048    1.3095   23.5388 C   0  0  0  0  0  0  0  0  0  0  0  0
   -9.2773    0.4049   24.2514 C   0  0  0  0  0  0  0  0  0  0  0  0
   -8.1702    0.9378   25.0115 C   0  0  0  0  0  0  0  0  0  0  0  0
   -7.3972    6.0131   28.9702 Cl  0  0  0  0  0  0  0  0  0  0  0  0
   -5.5885    4.5493   27.7287 C   0  0  0  0  0  0  0  0  0  0  0  0
   -7.3057    0.1691   25.5429 F   0  0  0  0  0  0  0  0  0  0  0  0
  -11.2702    3.4270   23.4517 C   0  0  1  0  0  0  0  0  0  0  0  0
  -12.3893    3.6987   24.0321 C   0  0  0  0  0  0  0  0  0  0  0  0
  -10.9226    4.0796   22.2119 C   0  0  0  0  0  0  0  0  0  0  0  0
  -12.6632    3.5562   25.3834 C   0  0  0  0  0  0  0  0  0  0  0  0
  -13.9437    3.8251   25.9670 C   0  0  0  0  0  0  0  0  0  0  0  0
  -14.9030    4.3830   25.1357 C   0  0  0  0  0  0  0  0  0  0  0  0
  1  4  1  0
  4 12  1  0
  4 13  1  6
 11 14  1  0
  8 15  1  0
 15 16  1  0
 15 17  1  1
 16 18  2  3
 18 19  1  0
 19 20  2  0
  6 11  1  0
 11 10  2  0
 10  9  1  0
  9  8  2  0
  8  5  1  0
  1  2  2  0
  2  3  1  0
  3  5  2  0
  5  6  1  0
  6  7  2  0
  7  1  1  0
M  END
$$$$
