No_7644-complexes_sdf/6BKW-FPZ/2024-09-17-14-21-01/
     RDKit          3D

 19 21  0  0  0  0  0  0  0  0999 V2000
   -7.7129    4.2099   27.0854 C   0  0  1  0  0  0  0  0  0  0  0  0
   -7.7814    5.1722   27.8972 C   0  0  0  0  0  0  0  0  0  0  0  0
   -7.3155    2.9700   27.6145 C   0  0  0  0  0  0  0  0  0  0  0  0
   -6.0554    2.7539   27.5147 C   0  0  0  0  0  0  0  0  0  0  0  0
   -5.4642    1.4850   27.9980 C   0  0  0  0  0  0  0  0  0  0  0  0
   -8.2273    6.5427   27.4044 C   0  0  0  0  0  0  0  0  0  0  0  0
   -6.2219    0.3468   28.0080 C   0  0  0  0  0  0  0  0  0  0  0  0
   -8.9371    6.5995   26.2305 C   0  0  0  0  0  0  0  0  0  0  0  0
   -7.6255    0.5222   27.6686 C   0  0  0  0  0  0  0  0  0  0  0  0
   -8.1700    1.8187   27.4343 C   0  0  0  0  0  0  0  0  0  0  0  0
   -8.1973    4.2578   25.9014 F   0  0  0  0  0  0  0  0  0  0  0  0
   -5.6877   -0.9313   28.2632 C   0  0  0  0  0  0  0  0  0  0  0  0
   -4.5203   -1.0895   28.8779 C   0  0  0  0  0  0  0  0  0  0  0  0
   -3.9849   -2.3398   29.2635 C   0  0  0  0  0  0  0  0  0  0  0  0
   -2.7654   -2.3800   29.9587 C   0  0  0  0  0  0  0  0  0  0  0  0
   -2.0364   -1.2371   30.2601 C   0  0  0  0  0  0  0  0  0  0  0  0
   -2.5892    0.0195   29.9147 C   0  0  0  0  0  0  0  0  0  0  0  0
   -3.7474    0.1155   29.3004 C   0  0  0  0  0  0  0  0  0  0  0  0
   -4.2382    1.3886   28.8324 N   0  0  0  0  0  0  0  0  0  0  0  0
  1  2  1  0
  1  3  1  0
  2  6  2  3
  6  8  1  0
  1 11  1  1
  7 12  2  0
 12 13  1  0
 18 19  1  0
 19  5  2  0
 13 14  2  0
 14 15  1  0
 15 16  2  0
 16 17  1  0
 17 18  2  0
 18 13  1  0
  3  4  2  0
  4  5  1  0
  5  7  1  0
  7  9  1  0
  9 10  2  0
 10  3  1  0
M  END
$$$$
