No_7053-complexes_sdf/6BKW-FPZ/2024-09-17-14-21-01/
     RDKit          3D

 24 27  0  0  0  0  0  0  0  0999 V2000
   -7.7129    4.2099   27.0854 C   0  0  0  0  0  0  0  0  0  0  0  0
   -7.7814    5.1722   27.8972 C   0  0  0  0  0  0  0  0  0  0  0  0
   -8.8255    3.2789   27.1191 C   0  0  0  0  0  0  0  0  0  0  0  0
   -9.9209    3.4734   27.9101 C   0  0  0  0  0  0  0  0  0  0  0  0
   -9.9736    4.7085   28.6831 C   0  0  0  0  0  0  0  0  0  0  0  0
   -8.8840    5.5441   28.6612 C   0  0  0  0  0  0  0  0  0  0  0  0
   -8.7102    2.0171   26.3293 C   0  0  0  0  0  0  0  0  0  0  0  0
   -9.2831    1.9661   25.0865 C   0  0  0  0  0  0  0  0  0  0  0  0
   -9.2048    0.8551   24.2798 C   0  0  0  0  0  0  0  0  0  0  0  0
   -8.0170    0.9454   26.8134 C   0  0  0  0  0  0  0  0  0  0  0  0
   -7.8645   -0.2124   26.0758 C   0  0  0  0  0  0  0  0  0  0  0  0
   -8.4630   -0.2279   24.7947 C   0  0  0  0  0  0  0  0  0  0  0  0
  -11.0703    2.6136   27.9565 C   0  0  0  0  0  0  0  0  0  0  0  0
  -12.1893    2.9749   28.6756 C   0  0  0  0  0  0  0  0  0  0  0  0
  -13.1634    2.8229   28.3886 C   0  0  0  0  0  0  0  0  0  0  0  0
  -13.5478    1.7228   27.4557 C   0  0  0  0  0  0  0  0  0  0  0  0
  -12.4709    1.1935   26.7304 C   0  0  0  0  0  0  0  0  0  0  0  0
  -11.2206    1.6950   27.0045 C   0  0  0  0  0  0  0  0  0  0  0  0
   -9.7087    0.8428   22.9464 C   0  0  0  0  0  0  0  0  0  0  0  0
   -9.5521   -0.1279   22.0758 C   0  0  0  0  0  0  0  0  0  0  0  0
  -10.1454   -0.1141   20.8479 C   0  0  0  0  0  0  0  0  0  0  0  0
  -10.8706    0.9975   20.4251 C   0  0  0  0  0  0  0  0  0  0  0  0
  -10.4706    1.9997   22.4864 C   0  0  0  0  0  0  0  0  0  0  0  0
  -11.0598    2.0408   21.3095 C   0  0  0  0  0  0  0  0  0  0  0  0
  3  7  1  0
  4 13  1  0
  9 19  1  0
 13 14  2  0
 14 15  1  0
 15 16  2  0
 16 17  1  0
 17 18  2  0
 18 13  1  0
  1  2  2  0
  2  6  1  0
  6  5  2  0
  5  4  1  0
  4  3  2  0
  3  1  1  0
  7  8  2  0
  8  9  1  0
  9 12  2  0
 12 11  1  0
 11 10  2  0
 10  7  1  0
 19 20  2  0
 20 21  1  0
 21 22  2  0
 22 24  1  0
 24 23  2  0
 23 19  1  0
M  END
$$$$
