No_783-complexes_sdf/6BKW-FPZ/2024-09-17-14-21-01/
     RDKit          3D

 12 13  0  0  0  0  0  0  0  0999 V2000
   -7.7129    4.2099   27.0854 C   0  0  0  0  0  0  0  0  0  0  0  0
   -7.7814    5.1722   27.8972 C   0  0  0  0  0  0  0  0  0  0  0  0
   -7.2983    2.9533   27.5684 C   0  0  0  0  0  0  0  0  0  0  0  0
   -7.6908    1.8111   26.9553 C   0  0  0  0  0  0  0  0  0  0  0  0
   -7.2237    0.5782   27.3450 C   0  0  0  0  0  0  0  0  0  0  0  0
   -7.9192   -0.5866   27.0520 C   0  0  0  0  0  0  0  0  0  0  0  0
   -9.0775   -0.4260   26.3041 C   0  0  0  0  0  0  0  0  0  0  0  0
   -9.4968    0.7766   25.7840 C   0  0  0  0  0  0  0  0  0  0  0  0
   -8.8166    1.9413   26.2158 C   0  0  0  0  0  0  0  0  0  0  0  0
   -8.5199    6.3766   27.5516 C   0  0  0  0  0  0  0  0  0  0  0  0
   -9.0800    4.0149   26.4312 C   0  0  0  0  0  0  0  0  0  0  0  0
   -9.4364    3.1200   25.7984 C   0  0  0  0  0  0  0  0  0  0  0  0
  2 10  1  0
  2  1  1  0
  1  3  2  0
  3  4  1  0
  9 12  1  0
 12 11  2  0
 11  1  1  0
  4  5  2  0
  5  6  1  0
  6  7  2  0
  7  8  1  0
  8  9  2  0
  9  4  1  0
M  END
$$$$
