No_7949-complexes_sdf/6BKW-FPZ/2024-09-17-14-21-01/
     RDKit          3D

 18 20  0  0  0  0  0  0  0  0999 V2000
   -7.9040    3.9820   27.1177 C   0  0  0  0  0  0  0  0  0  0  0  0
   -7.8663    4.8694   27.9238 C   0  0  0  0  0  0  0  0  0  0  0  0
   -9.0491    3.8523   26.2542 C   0  0  0  0  0  0  0  0  0  0  0  0
   -8.7661    5.9491   27.9690 C   0  0  0  0  0  0  0  0  0  0  0  0
   -9.9295    4.8502   26.2323 C   0  0  0  0  0  0  0  0  0  0  0  0
   -9.8077    5.9288   27.0933 C   0  0  0  0  0  0  0  0  0  0  0  0
   -9.0726    2.7074   25.3087 C   0  0  0  0  0  0  0  0  0  0  0  0
   -8.6026    1.4628   25.7488 C   0  0  0  0  0  0  0  0  0  0  0  0
   -9.8167    2.8097   24.1154 C   0  0  0  0  0  0  0  0  0  0  0  0
   -8.6113    0.3858   24.8930 C   0  0  0  0  0  0  0  0  0  0  0  0
   -9.8780    1.7126   23.2903 C   0  0  0  0  0  0  0  0  0  0  0  0
   -9.2447    0.5175   23.6633 C   0  0  0  0  0  0  0  0  0  0  0  0
   -9.3178   -0.6463   22.7176 C   0  0  0  0  0  0  0  0  0  0  0  0
  -10.1283   -1.6667   23.1077 C   0  0  0  0  0  0  0  0  0  0  0  0
  -10.1825   -2.7042   22.3388 C   0  0  0  0  0  0  0  0  0  0  0  0
   -9.6980   -2.8532   21.3147 C   0  0  0  0  0  0  0  0  0  0  0  0
   -8.7918   -1.7877   20.7279 C   0  0  0  0  0  0  0  0  0  0  0  0
   -8.5897   -0.6374   21.5102 C   0  0  0  0  0  0  0  0  0  0  0  0
  3  7  1  0
 12 13  1  0
 13 14  2  0
 14 15  1  0
 15 16  2  0
 16 17  1  0
 17 18  2  0
 18 13  1  0
  1  2  2  0
  2  4  1  0
  4  6  2  0
  6  5  1  0
  5  3  2  0
  3  1  1  0
  7  8  2  0
  8 10  1  0
 10 12  2  0
 12 11  1  0
 11  9  2  0
  9  7  1  0
M  END
$$$$
