No_7800-complexes_sdf/6BKW-FPZ/2024-09-17-14-21-01/
     RDKit          3D

 28 31  0  0  0  0  0  0  0  0999 V2000
   -7.9040    3.9820   27.1177 C   0  0  0  0  0  0  0  0  0  0  0  0
   -9.0711    4.3164   27.0630 C   0  0  0  0  0  0  0  0  0  0  0  0
   -9.9692    3.7224   26.1073 C   0  0  0  0  0  0  0  0  0  0  0  0
   -6.9787    4.6761   28.1003 C   0  0  0  0  0  0  0  0  0  0  0  0
  -11.1978    4.2793   25.7845 C   0  0  0  0  0  0  0  0  0  0  0  0
  -11.9722    3.7671   24.7671 C   0  0  0  0  0  0  0  0  0  0  0  0
  -11.4321    2.7931   23.9433 C   0  0  0  0  0  0  0  0  0  0  0  0
  -10.2070    2.2970   24.1835 C   0  0  0  0  0  0  0  0  0  0  0  0
   -9.3944    2.8078   25.1975 C   0  0  0  0  0  0  0  0  0  0  0  0
   -7.5087    5.6759   28.8863 C   0  0  0  0  0  0  0  0  0  0  0  0
   -9.4809    5.3980   27.8907 C   0  0  0  0  0  0  0  0  0  0  0  0
   -8.7253    6.0897   28.7200 C   0  0  0  0  0  0  0  0  0  0  0  0
   -9.6712    1.2963   23.3819 O   0  0  0  0  0  0  0  0  0  0  0  0
  -10.0472    0.0805   23.3703 C   0  0  0  0  0  0  0  0  0  0  0  0
   -9.5796   -0.6075   22.3962 C   0  0  0  0  0  0  0  0  0  0  0  0
   -9.8871   -2.0076   22.2198 C   0  0  0  0  0  0  0  0  0  0  0  0
  -10.7739   -2.5499   23.1272 C   0  0  0  0  0  0  0  0  0  0  0  0
  -10.8479   -0.6320   24.2534 C   0  0  0  0  0  0  0  0  0  0  0  0
  -11.1869   -1.8375   24.1570 C   0  0  0  0  0  0  0  0  0  0  0  0
  -12.0779   -2.5028   25.1626 C   0  0  0  0  0  0  0  0  0  0  0  0
  -11.7089   -2.5674   26.3513 N   0  0  0  0  0  0  0  0  0  0  0  0
  -10.6208   -2.0960   26.7701 C   0  0  0  0  0  0  0  0  0  0  0  0
  -10.4555   -2.0847   28.3117 C   0  0  0  0  0  0  0  0  0  0  0  0
   -9.2171   -1.7932   28.8366 C   0  0  0  0  0  0  0  0  0  0  0  0
   -8.1689   -1.2146   28.0720 C   0  0  0  0  0  0  0  0  0  0  0  0
   -8.4090   -1.0960   26.6843 C   0  0  0  0  0  0  0  0  0  0  0  0
   -9.5418   -1.5606   26.1269 C   0  0  0  0  0  0  0  0  0  0  0  0
  -13.2248   -2.6475   24.7250 O   0  0  0  0  0  0  0  0  0  0  0  0
  2  3  1  0
  8 13  1  0
 13 14  1  0
 19 20  1  0
 20 21  1  0
 21 22  1  0
 20 28  2  0
  3  5  2  0
  5  6  1  0
  6  7  2  0
  7  8  1  0
  8  9  2  0
  9  3  1  0
 14 15  2  0
 15 16  1  0
 16 17  2  0
 17 19  1  0
 19 18  2  0
 18 14  1  0
  1  2  2  0
  2 11  1  0
 11 12  2  0
 12 10  1  0
 10  4  2  0
  4  1  1  0
 22 23  2  0
 23 24  1  0
 24 25  2  0
 25 26  1  0
 26 27  2  0
 27 22  1  0
M  END
$$$$
