No_744-complexes_sdf/6BKW-FPZ/2024-09-17-14-21-01/
     RDKit          3D

 36 39  0  0  0  0  0  0  0  0999 V2000
   -7.7129    4.2099   27.0854 C   0  0  0  0  0  0  0  0  0  0  0  0
   -7.7814    5.1722   27.8972 C   0  0  0  0  0  0  0  0  0  0  0  0
   -8.7889    3.2468   27.2220 C   0  0  0  0  0  0  0  0  0  0  0  0
   -9.8927    3.4443   27.8449 C   0  0  0  0  0  0  0  0  0  0  0  0
   -9.0268    5.6720   28.5154 C   0  0  0  0  0  0  0  0  0  0  0  0
  -10.0572    4.7324   28.5632 C   0  0  0  0  0  0  0  0  0  0  0  0
   -8.6008    1.8859   26.5636 C   0  0  0  0  0  0  0  0  0  0  0  0
   -9.1950    1.5833   25.4809 C   0  0  0  0  0  0  0  0  0  0  0  0
   -8.9473    0.4147   24.7950 C   0  0  0  0  0  0  0  0  0  0  0  0
   -7.6360    1.0001   27.1668 C   0  0  0  0  0  0  0  0  0  0  0  0
   -7.3228   -0.1901   26.5440 C   0  0  0  0  0  0  0  0  0  0  0  0
   -8.0029   -0.4563   25.3453 C   0  0  0  0  0  0  0  0  0  0  0  0
  -11.0185    2.5306   27.9321 C   0  0  0  0  0  0  0  0  0  0  0  0
  -12.1162    2.8808   28.7175 C   0  0  0  0  0  0  0  0  0  0  0  0
  -13.3394    2.6653   28.2113 C   0  0  0  0  0  0  0  0  0  0  0  0
  -14.3991    3.2847   28.7236 C   0  0  0  0  0  0  0  0  0  0  0  0
  -14.3581    3.9201   29.9814 C   0  0  0  0  0  0  0  0  0  0  0  0
  -13.0984    3.8898   30.6228 C   0  0  0  0  0  0  0  0  0  0  0  0
  -11.9966    3.5062   29.9749 C   0  0  0  0  0  0  0  0  0  0  0  0
   -9.6062    0.0985   23.5270 C   0  0  1  0  0  0  0  0  0  0  0  0
  -10.0684    1.2347   22.4844 Cl  0  0  0  0  0  0  0  0  0  0  0  0
   -8.9033   -1.0216   22.6738 C   0  0  0  0  0  0  0  0  0  0  0  0
   -9.5721   -1.3415   21.4876 C   0  0  0  0  0  0  0  0  0  0  0  0
  -10.7150   -2.0623   21.6045 C   0  0  0  0  0  0  0  0  0  0  0  0
  -11.4742   -2.1946   20.5162 C   0  0  0  0  0  0  0  0  0  0  0  0
  -11.2622   -1.6929   19.5851 C   0  0  0  0  0  0  0  0  0  0  0  0
  -10.0925   -0.9219   19.1714 C   0  0  0  0  0  0  0  0  0  0  0  0
   -9.2348   -0.6801   20.2866 C   0  0  0  0  0  0  0  0  0  0  0  0
   -6.3682   -1.1187   27.0997 C   0  0  0  0  0  0  0  0  0  0  0  0
   -5.8118   -0.9431   28.0224 O   0  0  0  0  0  0  0  0  0  0  0  0
   -4.5487   -1.1665   28.3746 C   0  0  0  0  0  0  0  0  0  0  0  0
   -4.0823   -0.5191   29.4812 C   0  0  0  0  0  0  0  0  0  0  0  0
   -4.6853    0.4765   30.2348 C   0  0  0  0  0  0  0  0  0  0  0  0
   -2.6676   -0.8884   29.9674 C   0  0  0  0  0  0  0  0  0  0  0  0
   -1.8569   -1.6419   29.1713 C   0  0  0  0  0  0  0  0  0  0  0  0
   -0.6445   -1.8614   29.5453 C   0  0  0  0  0  0  0  0  0  0  0  0
  3  7  1  0
  4 13  1  0
  9 20  1  0
 20 21  1  6
 20 22  1  0
 22 23  1  0
 11 29  1  0
 29 30  1  0
 30 31  1  0
 31 32  2  3
 32 33  1  0
 32 34  1  0
 34 35  1  0
 35 36  1  0
 13 14  1  0
 14 15  2  0
 15 16  1  0
 16 17  2  0
 17 18  1  0
 18 19  2  0
 19 14  1  0
 23 24  2  0
 24 25  1  0
 25 26  2  0
 26 27  1  0
 27 28  2  0
 28 23  1  0
  1  2  2  0
  2  5  1  0
  5  6  2  0
  6  4  1  0
  4  3  2  0
  3  1  1  0
  7  8  2  0
  8  9  1  0
  9 12  2  0
 12 11  1  0
 11 10  2  0
 10  7  1  0
M  END
$$$$
