No_7991-complexes_sdf/6BKW-FPZ/2024-09-17-14-21-01/
     RDKit          3D

 10  9  0  0  0  0  0  0  0  0999 V2000
   -7.9040    3.9820   27.1177 C   0  0  0  0  0  0  0  0  0  0  0  0
   -7.8663    4.8694   27.9238 C   0  0  0  0  0  0  0  0  0  0  0  0
   -9.0491    3.8523   26.2542 C   0  0  0  0  0  0  0  0  0  0  0  0
   -8.7661    5.9491   27.9690 C   0  0  0  0  0  0  0  0  0  0  0  0
   -9.9295    4.8502   26.2323 C   0  0  0  0  0  0  0  0  0  0  0  0
   -9.8077    5.9288   27.0933 C   0  0  0  0  0  0  0  0  0  0  0  0
   -8.6449    7.0290   28.7451 F   0  0  0  0  0  0  0  0  0  0  0  0
   -9.3888    6.7987   28.0573 O   0  0  0  0  0  0  0  0  0  0  0  0
  -11.6149    6.3500   27.0547 Cl  0  0  0  0  0  0  0  0  0  0  0  0
   -9.7602    8.1230   27.4903 C   0  0  0  0  0  0  0  0  0  0  0  0
  1  2  1  0
  1  3  2  3
  2  4  2  3
  3  5  1  0
  5  6  1  0
  4  7  1  0
  4  8  1  0
  6  9  1  0
  8 10  1  0
M  END
$$$$
