No_7981-complexes_sdf/6BKW-FPZ/2024-09-17-14-21-01/
     RDKit          3D

 10 10  0  0  0  0  0  0  0  0999 V2000
   -7.2496    3.8871   27.4508 C   0  0  0  0  0  0  0  0  0  0  0  0
   -7.9379    4.9063   27.8518 C   0  0  0  0  0  0  0  0  0  0  0  0
   -9.3376    4.8647   27.7795 C   0  0  0  0  0  0  0  0  0  0  0  0
   -7.8544    2.6294   27.0414 C   0  0  0  0  0  0  0  0  0  0  0  0
   -9.2852    2.6570   27.0666 C   0  0  0  0  0  0  0  0  0  0  0  0
  -10.0126    3.7528   27.4890 C   0  0  0  0  0  0  0  0  0  0  0  0
  -11.8956    3.6700   27.5338 Br  0  0  0  0  0  0  0  0  0  0  0  0
   -6.9840    1.3026   26.6716 Cl  0  0  0  0  0  0  0  0  0  0  0  0
   -7.3384    6.0715   28.1631 O   0  0  0  0  0  0  0  0  0  0  0  0
  -10.0859    1.1634   26.6897 Cl  0  0  0  0  0  0  0  0  0  0  0  0
  6  7  1  0
  4  8  1  0
  2  9  1  0
  5 10  1  0
  1  2  2  0
  2  3  1  0
  3  6  2  0
  6  5  1  0
  5  4  2  0
  4  1  1  0
M  END
$$$$
