No_7663-complexes_sdf/6BKW-FPZ/2024-09-17-14-21-01/
     RDKit          3D

 30 36  0  0  0  0  0  0  0  0999 V2000
   -7.9040    3.9820   27.1177 C   0  0  0  0  0  0  0  0  0  0  0  0
   -7.8663    4.8694   27.9238 C   0  0  0  0  0  0  0  0  0  0  0  0
   -9.0806    3.1428   27.1220 C   0  0  0  0  0  0  0  0  0  0  0  0
   -9.1366    1.9856   26.2314 C   0  0  0  0  0  0  0  0  0  0  0  0
   -8.9896    5.4789   28.4964 C   0  0  0  0  0  0  0  0  0  0  0  0
  -10.1971    4.7487   28.3835 C   0  0  0  0  0  0  0  0  0  0  0  0
  -10.2153    3.6197   27.6096 C   0  0  0  0  0  0  0  0  0  0  0  0
   -8.7057    1.9626   25.1656 C   0  0  0  0  0  0  0  0  0  0  0  0
   -8.7345    0.8318   24.2239 C   0  0  0  0  0  0  0  0  0  0  0  0
   -9.1104   -0.3541   24.7501 C   0  0  0  0  0  0  0  0  0  0  0  0
   -9.4594    0.6492   26.8543 C   0  0  0  0  0  0  0  0  0  0  0  0
   -9.4785   -0.4351   26.1146 C   0  0  0  0  0  0  0  0  0  0  0  0
  -11.3424    2.7230   27.4754 C   0  0  0  0  0  0  0  0  0  0  0  0
  -12.5710    3.3861   27.3870 C   0  0  0  0  0  0  0  0  0  0  0  0
  -13.7567    2.7394   27.2313 C   0  0  0  0  0  0  0  0  0  0  0  0
  -13.6714    1.3415   27.2269 C   0  0  0  0  0  0  0  0  0  0  0  0
  -12.4955    0.6510   27.3743 C   0  0  0  0  0  0  0  0  0  0  0  0
  -11.3452    1.3822   27.5699 C   0  0  0  0  0  0  0  0  0  0  0  0
  -10.0595    0.9395   26.9699 C   0  0  2  0  0  0  0  0  0  0  0  0
  -11.0181    0.1620   27.0915 O   0  0  0  0  0  0  0  0  0  0  0  0
   -9.6905   -1.8426   26.4179 C   0  0  2  0  0  0  0  0  0  0  0  0
   -8.6044   -2.3062   27.2640 C   0  0  0  0  0  0  0  0  0  0  0  0
   -8.9434   -3.3242   28.1181 C   0  0  0  0  0  0  0  0  0  0  0  0
   -7.3080   -1.8537   27.1898 C   0  0  0  0  0  0  0  0  0  0  0  0
   -6.3022   -2.3291   28.1004 C   0  0  0  0  0  0  0  0  0  0  0  0
   -7.9109   -3.8342   29.0600 C   0  0  0  0  0  0  0  0  0  0  0  0
   -6.6155   -3.3283   29.0138 C   0  0  0  0  0  0  0  0  0  0  0  0
   -9.6171   -2.6579   25.1827 C   0  0  0  0  0  0  0  0  0  0  0  0
   -9.0603   -1.6222   24.1869 C   0  0  1  0  0  0  0  0  0  0  0  0
   -8.7630   -1.9322   22.8795 C   0  0  0  0  0  0  0  0  0  0  0  0
  3  4  1  0
  7 13  1  0
 11 19  1  0
 18 19  1  0
 17 20  1  0
 19 20  1  6
 12 21  1  0
 21 22  1  1
 21 28  1  0
 10 29  1  0
 28 29  1  0
 29 30  1  6
 13 14  2  0
 14 15  1  0
 15 16  2  0
 16 17  1  0
 17 18  2  0
 18 13  1  0
  4  8  2  0
  8  9  1  0
  9 10  2  0
 10 12  1  0
 12 11  2  0
 11  4  1  0
  1  2  2  0
  2  5  1  0
  5  6  2  0
  6  7  1  0
  7  3  2  0
  3  1  1  0
 22 23  2  0
 23 26  1  0
 26 27  2  0
 27 25  1  0
 25 24  2  0
 24 22  1  0
M  END
$$$$
