No_7696-complexes_sdf/6BKW-FPZ/2024-09-17-14-21-01/
     RDKit          3D

 24 27  0  0  0  0  0  0  0  0999 V2000
   -7.9040    3.9820   27.1177 C   0  0  0  0  0  0  0  0  0  0  0  0
   -9.0711    4.3164   27.0630 C   0  0  0  0  0  0  0  0  0  0  0  0
   -9.9692    3.7224   26.1073 C   0  0  0  0  0  0  0  0  0  0  0  0
   -6.9787    4.6761   28.1003 C   0  0  0  0  0  0  0  0  0  0  0  0
   -9.4538    2.6801   25.3673 C   0  0  0  0  0  0  0  0  0  0  0  0
   -8.1927    2.1957   25.6621 C   0  0  0  0  0  0  0  0  0  0  0  0
   -7.4333    2.8255   26.6299 C   0  0  0  0  0  0  0  0  0  0  0  0
  -10.3066    1.9975   24.3777 C   0  0  0  0  0  0  0  0  0  0  0  0
  -10.6559    2.6408   23.2832 C   0  0  0  0  0  0  0  0  0  0  0  0
  -10.8477    3.9571   23.2159 C   0  0  0  0  0  0  0  0  0  0  0  0
  -11.1887    4.7158   22.0377 C   0  0  0  0  0  0  0  0  0  0  0  0
  -11.2253    4.0315   20.8715 C   0  0  0  0  0  0  0  0  0  0  0  0
  -10.9092    1.9435   22.0469 C   0  0  0  0  0  0  0  0  0  0  0  0
  -11.1479    2.6382   20.8456 C   0  0  0  0  0  0  0  0  0  0  0  0
  -10.5665    0.6234   24.5731 C   0  0  0  0  0  0  0  0  0  0  0  0
  -10.8891    0.0979   25.6877 C   0  0  0  0  0  0  0  0  0  0  0  0
  -11.1240   -1.2485   25.8775 C   0  0  0  0  0  0  0  0  0  0  0  0
  -11.0483   -2.0279   24.7770 C   0  0  0  0  0  0  0  0  0  0  0  0
  -10.7467   -1.5127   23.5498 C   0  0  0  0  0  0  0  0  0  0  0  0
  -10.4781   -0.1846   23.4329 C   0  0  0  0  0  0  0  0  0  0  0  0
  -10.7872    0.5044   22.1240 C   0  0  0  0  0  0  0  0  0  0  0  0
   -7.4906    5.8082   28.6747 N   0  0  0  0  0  0  0  0  0  0  0  0
   -5.9087    4.1485   28.4214 O   0  0  0  0  0  0  0  0  0  0  0  0
  -10.8673   -0.2279   21.0863 O   0  0  0  0  0  0  0  0  0  0  0  0
  1  4  1  0
  5  8  1  0
  8  9  1  0
  8 15  1  0
 13 21  1  0
 20 21  1  0
  4 22  1  0
  4 23  2  0
 21 24  2  0
 15 16  2  0
 16 17  1  0
 17 18  2  0
 18 19  1  0
 19 20  2  0
 20 15  1  0
  9 10  2  0
 10 11  1  0
 11 12  2  0
 12 14  1  0
 14 13  2  0
 13  9  1  0
  1  2  2  0
  2  3  1  0
  3  5  2  0
  5  6  1  0
  6  7  2  0
  7  1  1  0
M  END
$$$$
