No_7311-complexes_sdf/6BKW-FPZ/2024-09-17-14-21-01/
     RDKit          3D

 17 18  0  0  0  0  0  0  0  0999 V2000
   -7.7129    4.2099   27.0854 C   0  0  0  0  0  0  0  0  0  0  0  0
   -8.9133    4.4736   27.0998 C   0  0  0  0  0  0  0  0  0  0  0  0
   -9.7135    3.9633   26.0300 C   0  0  0  0  0  0  0  0  0  0  0  0
   -7.2585    2.8371   26.9278 C   0  0  0  0  0  0  0  0  0  0  0  0
   -9.4798    2.6045   25.7571 C   0  0  0  0  0  0  0  0  0  0  0  0
   -8.2172    2.0710   26.1389 C   0  0  0  0  0  0  0  0  0  0  0  0
   -9.2202    5.8309   27.3014 F   0  0  0  0  0  0  0  0  0  0  0  0
  -10.3808    1.8580   24.9549 C   0  0  0  0  0  0  0  0  0  0  0  0
  -10.3095    1.9764   23.6181 C   0  0  0  0  0  0  0  0  0  0  0  0
  -11.1329    1.2913   22.6754 C   0  0  0  0  0  0  0  0  0  0  0  0
  -11.9814    0.4483   23.1097 C   0  0  0  0  0  0  0  0  0  0  0  0
  -11.2223    0.9039   25.4347 C   0  0  0  0  0  0  0  0  0  0  0  0
  -12.0726    0.1984   24.5281 C   0  0  0  0  0  0  0  0  0  0  0  0
   -6.7901    4.9336   28.1719 C   0  0  0  0  0  0  0  0  0  0  0  0
   -6.1081    2.1873   27.4862 C   0  0  0  0  0  0  0  0  0  0  0  0
   -6.3034    1.2464   28.2395 F   0  0  0  0  0  0  0  0  0  0  0  0
   -4.9997    2.6792   27.3070 F   0  0  0  0  0  0  0  0  0  0  0  0
  2  7  1  0
  5  8  1  0
  1 14  1  0
  4 15  1  0
 15 16  1  0
 15 17  1  0
  1  2  2  0
  2  3  1  0
  3  5  2  0
  5  6  1  0
  6  4  2  0
  4  1  1  0
  8  9  2  0
  9 10  1  0
 10 11  2  0
 11 13  1  0
 13 12  2  0
 12  8  1  0
M  END
$$$$
