No_7062-complexes_sdf/6BKW-FPZ/2024-09-17-14-21-01/
     RDKit          3D

 13 14  0  0  0  0  0  0  0  0999 V2000
   -7.2496    3.8871   27.4508 C   0  0  0  0  0  0  0  0  0  0  0  0
   -7.9379    4.9063   27.8518 C   0  0  0  0  0  0  0  0  0  0  0  0
   -9.3460    4.8223   27.8695 C   0  0  0  0  0  0  0  0  0  0  0  0
   -7.8628    2.6163   27.1065 C   0  0  0  0  0  0  0  0  0  0  0  0
   -9.2787    2.5744   27.1970 C   0  0  0  0  0  0  0  0  0  0  0  0
  -10.0108    3.6770   27.6340 C   0  0  0  0  0  0  0  0  0  0  0  0
  -11.4834    3.5674   27.7432 C   0  0  0  0  0  0  0  0  0  0  0  0
  -12.3295    3.8838   27.2730 C   0  0  0  0  0  0  0  0  0  0  0  0
  -13.7775    3.8550   27.5201 C   0  0  0  0  0  0  0  0  0  0  0  0
  -11.8683    2.5360   28.7555 C   0  0  0  0  0  0  0  0  0  0  0  0
  -13.1254    2.2969   29.1585 C   0  0  0  0  0  0  0  0  0  0  0  0
  -13.4404    1.3260   30.1932 C   0  0  0  0  0  0  0  0  0  0  0  0
  -14.1233    3.0028   28.4850 C   0  0  0  0  0  0  0  0  0  0  0  0
  6  7  1  0
 11 12  1  0
  1  2  2  0
  2  3  1  0
  3  6  2  0
  6  5  1  0
  5  4  2  0
  4  1  1  0
  7  8  2  0
  8  9  1  0
  9 13  2  0
 13 11  1  0
 11 10  2  0
 10  7  1  0
M  END
$$$$
