No_7889-complexes_sdf/6BKW-FPZ/2024-09-17-14-21-01/
     RDKit          3D

 11 12  0  0  0  0  0  0  0  0999 V2000
   -7.7129    4.2099   27.0854 C   0  0  0  0  0  0  0  0  0  0  0  0
   -7.7814    5.1722   27.8972 C   0  0  0  0  0  0  0  0  0  0  0  0
   -8.8776    3.8408   26.3416 C   0  0  0  0  0  0  0  0  0  0  0  0
   -9.9844    4.6492   26.4743 C   0  0  0  0  0  0  0  0  0  0  0  0
   -8.7830    6.1594   27.8870 C   0  0  0  0  0  0  0  0  0  0  0  0
   -9.9269    5.8191   27.1183 C   0  0  0  0  0  0  0  0  0  0  0  0
   -8.6884    2.5856   25.5935 C   0  0  0  0  0  0  0  0  0  0  0  0
   -9.6854    2.2480   24.1947 Br  0  0  0  0  0  0  0  0  0  0  0  0
   -7.9561    1.5527   26.2155 C   0  0  0  0  0  0  0  0  0  0  0  0
   -7.4958    1.7014   27.5011 C   0  0  0  0  0  0  0  0  0  0  0  0
   -6.9586    3.0960   27.8108 C   0  0  0  0  0  0  0  0  0  0  0  0
  7  8  1  0
  3  7  1  0
  7  9  2  0
  9 10  1  0
 10 11  2  0
 11  1  1  0
  1  2  2  0
  2  5  1  0
  5  6  2  0
  6  4  1  0
  4  3  2  0
  3  1  1  0
M  END
$$$$
