No_7393-complexes_sdf/6BKW-FPZ/2024-09-17-14-21-01/
     RDKit          3D

 13 13  0  0  0  0  0  0  0  0999 V2000
   -7.9040    3.9820   27.1177 C   0  0  0  0  0  0  0  0  0  0  0  0
   -7.8663    4.8694   27.9238 C   0  0  0  0  0  0  0  0  0  0  0  0
   -9.0491    3.8523   26.2542 C   0  0  0  0  0  0  0  0  0  0  0  0
   -9.9827    3.2456   26.6451 C   0  0  0  0  0  0  0  0  0  0  0  0
  -10.8316    2.5972   25.8351 C   0  0  0  0  0  0  0  0  0  0  0  0
  -11.9102    1.9174   26.2077 C   0  0  0  0  0  0  0  0  0  0  0  0
   -9.1195    5.1222   28.6492 C   0  0  0  0  0  0  0  0  0  0  0  0
  -10.2699    4.4872   27.8425 C   0  0  0  0  0  0  0  0  0  0  0  0
  -12.0596    1.8227   27.6772 C   0  0  0  0  0  0  0  0  0  0  0  0
  -12.2040    0.6046   28.2334 C   0  0  0  0  0  0  0  0  0  0  0  0
  -10.6321    2.7504   24.3818 C   0  0  0  0  0  0  0  0  0  0  0  0
  -10.8604    3.8501   23.6809 C   0  0  0  0  0  0  0  0  0  0  0  0
  -10.6425    3.9683   22.2544 C   0  0  0  0  0  0  0  0  0  0  0  0
  1  2  1  0
  1  3  1  0
  3  4  1  0
  4  5  1  0
  5  6  2  3
  2  7  1  0
  4  8  1  0
  7  8  1  0
  6  9  1  0
  9 10  2  0
  5 11  1  0
 11 12  2  3
 12 13  1  0
M  END
$$$$
