No_7910-complexes_sdf/6BKW-FPZ/2024-09-17-14-21-01/
     RDKit          3D

 26 29  0  0  0  0  0  0  0  0999 V2000
   -7.9040    3.9820   27.1177 C   0  0  0  0  0  0  0  0  0  0  0  0
   -7.8663    4.8694   27.9238 C   0  0  0  0  0  0  0  0  0  0  0  0
   -9.0491    3.8523   26.2542 C   0  0  0  0  0  0  0  0  0  0  0  0
   -8.7661    5.9491   27.9690 C   0  0  0  0  0  0  0  0  0  0  0  0
   -9.9295    4.8502   26.2323 C   0  0  0  0  0  0  0  0  0  0  0  0
   -9.8077    5.9288   27.0933 C   0  0  0  0  0  0  0  0  0  0  0  0
   -9.0726    2.7074   25.3087 C   0  0  0  0  0  0  0  0  0  0  0  0
  -10.0632    2.7302   24.3178 C   0  0  0  0  0  0  0  0  0  0  0  0
  -10.9336    3.8766   24.2566 C   0  0  0  0  0  0  0  0  0  0  0  0
  -10.8854    4.8283   25.1895 N   0  0  0  0  0  0  0  0  0  0  0  0
  -11.8841    3.8790   23.3592 N   0  0  0  0  0  0  0  0  0  0  0  0
   -6.7216    2.6849   27.2537 Cl  0  0  0  0  0  0  0  0  0  0  0  0
  -13.0901    4.0860   23.3852 C   0  0  0  0  0  0  0  0  0  0  0  0
  -13.7329    4.0437   24.5780 C   0  0  0  0  0  0  0  0  0  0  0  0
  -15.1026    4.4651   24.6962 C   0  0  0  0  0  0  0  0  0  0  0  0
  -15.7833    4.4491   25.9624 C   0  0  0  0  0  0  0  0  0  0  0  0
  -15.0677    4.0895   27.1272 C   0  0  0  0  0  0  0  0  0  0  0  0
  -13.7126    3.7352   27.0290 C   0  0  0  0  0  0  0  0  0  0  0  0
  -13.1095    3.7411   25.8867 C   0  0  0  0  0  0  0  0  0  0  0  0
  -13.8039    4.3441   22.3879 O   0  0  0  0  0  0  0  0  0  0  0  0
  -10.1313    1.6296   23.4372 C   0  0  0  0  0  0  0  0  0  0  0  0
   -9.4906    0.4598   23.7624 C   0  0  0  0  0  0  0  0  0  0  0  0
   -9.5804   -0.5538   23.1114 C   0  0  0  0  0  0  0  0  0  0  0  0
  -10.2986   -0.5520   21.8283 C   0  0  0  0  0  0  0  0  0  0  0  0
  -10.9721    0.6426   21.4692 C   0  0  0  0  0  0  0  0  0  0  0  0
  -10.8586    1.6924   22.2720 C   0  0  0  0  0  0  0  0  0  0  0  0
  9 11  1  0
  1 12  1  0
 11 13  1  0
 13 14  1  0
 13 20  2  0
  8 21  1  0
  5 10  2  0
 10  9  1  0
  9  8  2  0
  8  7  1  0
  7  3  2  0
 21 22  2  0
 22 23  1  0
 23 24  2  0
 24 25  1  0
 25 26  2  0
 26 21  1  0
  1  2  2  0
  2  4  1  0
  4  6  2  0
  6  5  1  0
  5  3  1  0
  3  1  1  0
 14 15  2  0
 15 16  1  0
 16 17  2  0
 17 18  1  0
 18 19  2  0
 19 14  1  0
M  END
$$$$
