No_7001-complexes_sdf/6BKW-FPZ/2024-09-17-14-21-01/
     RDKit          3D

 27 30  0  0  0  0  0  0  0  0999 V2000
   -7.9040    3.9820   27.1177 C   0  0  0  0  0  0  0  0  0  0  0  0
   -7.8663    4.8694   27.9238 C   0  0  0  0  0  0  0  0  0  0  0  0
   -9.0501    3.8017   26.2617 C   0  0  0  0  0  0  0  0  0  0  0  0
  -10.0189    4.7608   26.3707 C   0  0  0  0  0  0  0  0  0  0  0  0
   -8.6973    5.9722   27.8968 C   0  0  0  0  0  0  0  0  0  0  0  0
   -9.8216    5.8946   27.1241 C   0  0  0  0  0  0  0  0  0  0  0  0
   -9.1437    2.6293   25.4175 C   0  0  0  0  0  0  0  0  0  0  0  0
   -9.9828    2.7153   24.2925 C   0  0  0  0  0  0  0  0  0  0  0  0
  -10.1268    1.6091   23.5189 C   0  0  0  0  0  0  0  0  0  0  0  0
   -9.3057    0.4350   23.7675 C   0  0  0  0  0  0  0  0  0  0  0  0
   -8.4257    1.4363   25.5742 C   0  0  0  0  0  0  0  0  0  0  0  0
   -8.4905    0.4049   24.8177 C   0  0  0  0  0  0  0  0  0  0  0  0
   -9.4196   -0.9714   22.7329 Cl  0  0  0  0  0  0  0  0  0  0  0  0
  -10.9945    1.6278   22.3001 C   0  0  0  0  0  0  0  0  0  0  0  0
  -12.0648    2.0498   22.4136 C   0  0  0  0  0  0  0  0  0  0  0  0
  -12.9883    2.1917   21.2354 C   0  0  0  0  0  0  0  0  0  0  0  0
  -12.4851    1.6732   20.0274 C   0  0  0  0  0  0  0  0  0  0  0  0
  -11.1911    1.1621   19.9299 C   0  0  0  0  0  0  0  0  0  0  0  0
  -10.3799    1.1533   21.0553 C   0  0  0  0  0  0  0  0  0  0  0  0
   -6.6824    5.1165   28.6888 O   0  0  0  0  0  0  0  0  0  0  0  0
  -13.3236    1.6970   18.8030 C   0  0  0  0  0  0  0  0  0  0  0  0
  -12.9240    1.5205   17.7432 C   0  0  0  0  0  0  0  0  0  0  0  0
  -12.8447    0.9437   16.9081 C   0  0  0  0  0  0  0  0  0  0  0  0
  -13.7140   -0.2921   16.8844 C   0  0  0  0  0  0  0  0  0  0  0  0
  -14.7343   -0.1389   17.6193 C   0  0  0  0  0  0  0  0  0  0  0  0
  -15.0862    0.5185   18.7141 C   0  0  0  0  0  0  0  0  0  0  0  0
  -14.5458    1.3067   19.2064 C   0  0  0  0  0  0  0  0  0  0  0  0
  3  7  1  0
 10 13  1  0
  9 14  1  0
  2 20  1  0
 17 21  1  0
 21 22  1  0
 22 23  2  0
 23 24  1  0
 24 25  2  0
 25 26  1  0
 21 27  1  0
 26 27  2  0
  7  8  2  0
  8  9  1  0
  9 10  2  0
 10 12  1  0
 12 11  2  0
 11  7  1  0
 14 15  2  0
 15 16  1  0
 16 17  2  0
 17 18  1  0
 18 19  2  0
 19 14  1  0
  1  2  2  0
  2  5  1  0
  5  6  2  0
  6  4  1  0
  4  3  2  0
  3  1  1  0
M  END
$$$$
