No_7822-complexes_sdf/6BKW-FPZ/2024-09-17-14-21-01/
     RDKit          3D

 28 31  0  0  0  0  0  0  0  0999 V2000
   -7.7129    4.2099   27.0854 C   0  0  0  0  0  0  0  0  0  0  0  0
   -8.2112    3.0637   26.9225 C   0  0  0  0  0  0  0  0  0  0  0  0
   -7.0021    4.5281   28.2396 C   0  0  0  0  0  0  0  0  0  0  0  0
   -7.5497    1.9016   27.4549 C   0  0  0  0  0  0  0  0  0  0  0  0
   -6.3677    2.2142   28.2276 C   0  0  0  0  0  0  0  0  0  0  0  0
   -6.0061    3.5229   28.4663 C   0  0  0  0  0  0  0  0  0  0  0  0
   -8.7045    5.3687   26.6705 C   0  0  0  0  0  0  0  0  0  0  0  0
   -9.3506    5.1984   25.4856 N   0  0  0  0  0  0  0  0  0  0  0  0
   -8.4076    6.5745   26.9877 O   0  0  0  0  0  0  0  0  0  0  0  0
   -5.4709    1.0724   28.5882 C   0  0  0  0  0  0  0  0  0  0  0  0
   -5.7595   -0.2718   28.3416 C   0  0  0  0  0  0  0  0  0  0  0  0
   -4.9187   -1.2788   28.8581 C   0  0  0  0  0  0  0  0  0  0  0  0
   -3.7167   -0.8784   29.5032 C   0  0  0  0  0  0  0  0  0  0  0  0
   -3.3780    0.4428   29.6382 C   0  0  0  0  0  0  0  0  0  0  0  0
   -4.1746    1.3708   29.2476 C   0  0  0  0  0  0  0  0  0  0  0  0
   -2.8260   -2.0212   29.9854 C   0  0  0  0  0  0  0  0  0  0  0  0
   -2.8597   -2.9328   29.5277 O   0  0  0  0  0  0  0  0  0  0  0  0
   -1.8309   -1.5976   30.8310 O   0  0  0  0  0  0  0  0  0  0  0  0
   -9.9626    3.9914   25.1409 C   0  0  2  0  0  0  0  0  0  0  0  0
   -9.2821    2.8153   25.7476 C   0  0  0  0  0  0  0  0  0  0  0  0
  -10.7986    3.8608   24.0993 C   0  0  0  0  0  0  0  0  0  0  0  0
  -10.7214    3.2886   23.0768 N   0  0  0  0  0  0  0  0  0  0  0  0
   -9.9966    2.2289   22.9343 C   0  0  0  0  0  0  0  0  0  0  0  0
  -11.3075    3.7792   21.7742 C   0  0  0  0  0  0  0  0  0  0  0  0
   -9.9337    1.4088   21.7297 C   0  0  0  0  0  0  0  0  0  0  0  0
  -11.2517    3.0827   20.6055 C   0  0  0  0  0  0  0  0  0  0  0  0
  -10.4720    1.9162   20.6194 C   0  0  0  0  0  0  0  0  0  0  0  0
  -12.0501    4.1243   24.5827 O   0  0  0  0  0  0  0  0  0  0  0  0
  1  7  1  0
  7  8  1  0
  7  9  2  0
  5 10  1  0
 13 16  1  0
 16 17  2  0
 16 18  1  0
  8 19  1  0
  2 20  1  0
 19 21  1  6
 21 22  1  0
 22 23  1  0
 22 24  1  0
 25 27  1  0
 26 27  1  0
 21 28  2  0
 23 25  1  0
 26 24  1  0
 20 19  1  0
  1  2  2  0
  2  4  1  0
  4  5  2  0
  5  6  1  0
  6  3  2  0
  3  1  1  0
 10 11  2  0
 11 12  1  0
 12 13  2  0
 13 14  1  0
 14 15  2  0
 15 10  1  0
M  END
$$$$
