No_712-complexes_sdf/6BKW-FPZ/2024-09-17-14-21-01/
     RDKit          3D

 34 37  0  0  0  0  0  0  0  0999 V2000
   -7.7129    4.2099   27.0854 C   0  0  0  0  0  0  0  0  0  0  0  0
   -7.7814    5.1722   27.8972 C   0  0  0  0  0  0  0  0  0  0  0  0
   -8.8998    3.8713   26.3707 C   0  0  0  0  0  0  0  0  0  0  0  0
   -9.9938    4.6774   26.5446 C   0  0  0  0  0  0  0  0  0  0  0  0
   -8.7789    6.1536   27.9256 C   0  0  0  0  0  0  0  0  0  0  0  0
   -9.9428    5.8398   27.2296 C   0  0  0  0  0  0  0  0  0  0  0  0
   -8.9119    2.6447   25.5685 C   0  0  0  0  0  0  0  0  0  0  0  0
   -9.3600    2.7430   24.4036 F   0  0  0  0  0  0  0  0  0  0  0  0
   -7.5927    2.1749   25.5280 F   0  0  0  0  0  0  0  0  0  0  0  0
   -9.6820    1.7587   26.2329 F   0  0  0  0  0  0  0  0  0  0  0  0
   -6.6505    5.6017   28.5803 F   0  0  0  0  0  0  0  0  0  0  0  0
  -11.0734    4.3604   25.8147 O   0  0  0  0  0  0  0  0  0  0  0  0
  -12.1880    4.1637   26.4124 C   0  0  0  0  0  0  0  0  0  0  0  0
  -12.2915    3.7525   27.7278 C   0  0  0  0  0  0  0  0  0  0  0  0
  -13.4868    3.6280   28.3860 C   0  0  0  0  0  0  0  0  0  0  0  0
  -14.6491    3.8355   27.7106 C   0  0  0  0  0  0  0  0  0  0  0  0
  -14.6021    4.2551   26.3498 C   0  0  0  0  0  0  0  0  0  0  0  0
  -13.3902    4.4156   25.7048 C   0  0  0  0  0  0  0  0  0  0  0  0
  -13.5356    3.2160   29.8419 C   0  0  0  0  0  0  0  0  0  0  0  0
  -13.6000    4.0492   30.7078 O   0  0  0  0  0  0  0  0  0  0  0  0
  -13.2220    1.9892   30.1516 O   0  0  0  0  0  0  0  0  0  0  0  0
  -14.5119    3.8916   31.7975 C   0  0  0  0  0  0  0  0  0  0  0  0
  -13.8072    4.1618   32.9602 C   0  0  0  0  0  0  0  0  0  0  0  0
  -13.3007    5.3362   33.3000 C   0  0  0  0  0  0  0  0  0  0  0  0
  -12.6104    5.5972   34.5674 C   0  0  0  0  0  0  0  0  0  0  0  0
  -12.1989    4.4456   35.3756 C   0  0  0  0  0  0  0  0  0  0  0  0
  -12.5824    3.1671   34.9460 C   0  0  0  0  0  0  0  0  0  0  0  0
  -13.3783    3.0172   33.7665 C   0  0  0  0  0  0  0  0  0  0  0  0
  -11.4525    4.6536   36.5710 C   0  0  0  0  0  0  0  0  0  0  0  0
  -10.2797    5.1269   36.6913 N   0  0  0  0  0  0  0  0  0  0  0  0
  -12.1627    4.2568   37.8021 C   0  0  0  0  0  0  0  0  0  0  0  0
  -11.3732    4.2164   38.9454 C   0  0  0  0  0  0  0  0  0  0  0  0
  -10.1471    4.8548   39.1014 C   0  0  0  0  0  0  0  0  0  0  0  0
   -9.5080    5.1814   37.8455 C   0  0  0  0  0  0  0  0  0  0  0  0
  3  7  1  0
  7  8  1  0
  7  9  1  0
  7 10  1  0
  2 11  1  0
  4 12  1  0
 12 13  1  0
 15 19  1  0
 19 20  1  0
 19 21  2  0
 20 22  1  0
 22 23  1  0
 26 29  1  0
 23 24  2  0
 24 25  1  0
 25 26  2  0
 26 27  1  0
 27 28  2  0
 28 23  1  0
 13 14  2  0
 14 15  1  0
 15 16  2  0
 16 17  1  0
 17 18  2  0
 18 13  1  0
  1  2  2  0
  2  5  1  0
  5  6  2  0
  6  4  1  0
  4  3  2  0
  3  1  1  0
 29 30  2  0
 30 34  1  0
 34 33  2  0
 33 32  1  0
 32 31  2  0
 31 29  1  0
M  END
$$$$
