No_7070-complexes_sdf/6BKW-FPZ/2024-09-17-14-21-01/
     RDKit          3D

 22 24  0  0  0  0  0  0  0  0999 V2000
   -7.2496    3.8871   27.4508 C   0  0  0  0  0  0  0  0  0  0  0  0
   -7.6161    2.7143   27.1523 C   0  0  0  0  0  0  0  0  0  0  0  0
   -7.1619    1.8631   27.5232 C   0  0  0  0  0  0  0  0  0  0  0  0
   -7.7575    4.8848   27.9618 C   0  0  0  0  0  0  0  0  0  0  0  0
   -5.7237    1.9137   27.8973 C   0  0  0  0  0  0  0  0  0  0  0  0
   -4.9897    0.6634   28.2417 C   0  0  0  0  0  0  0  0  0  0  0  0
   -5.7175   -0.4285   28.3240 C   0  0  0  0  0  0  0  0  0  0  0  0
   -7.3814    0.4030   27.6413 C   0  0  0  0  0  0  0  0  0  0  0  0
   -6.9277   -0.5852   27.9955 C   0  0  0  0  0  0  0  0  0  0  0  0
   -9.1816    4.8928   28.2768 C   0  0  0  0  0  0  0  0  0  0  0  0
   -9.9250    3.7176   27.8493 C   0  0  0  0  0  0  0  0  0  0  0  0
   -9.2034    2.6199   27.9059 C   0  0  0  0  0  0  0  0  0  0  0  0
   -4.8595   -1.6523   28.8670 C   0  0  1  0  0  0  0  0  0  0  0  0
   -4.3602   -1.7905   29.7706 C   0  0  0  0  0  0  0  0  0  0  0  0
   -4.3959   -0.6494   30.8837 C   0  0  0  0  0  0  0  0  0  0  0  0
   -3.6514   -0.7338   32.0894 C   0  0  0  0  0  0  0  0  0  0  0  0
   -2.6901   -1.7284   32.1816 C   0  0  0  0  0  0  0  0  0  0  0  0
   -2.5389   -2.6851   31.2032 C   0  0  0  0  0  0  0  0  0  0  0  0
   -3.2950   -2.6433   30.1282 C   0  0  0  0  0  0  0  0  0  0  0  0
   -5.0293   -2.7858   27.9535 C   0  0  0  0  0  0  0  0  0  0  0  0
   -4.5681   -2.9043   26.7943 C   0  0  0  0  0  0  0  0  0  0  0  0
   -4.7187   -4.0341   25.9969 C   0  0  0  0  0  0  0  0  0  0  0  0
  2  3  1  0
 13  7  1  1
 13 20  1  0
 20 21  2  3
 21 22  1  0
 13 14  1  0
  1  2  2  0
  2 12  1  0
 12 11  2  0
 11 10  1  0
 10  4  2  0
  4  1  1  0
  3  5  2  0
  5  6  1  0
  6  7  2  0
  7  9  1  0
  9  8  2  0
  8  3  1  0
 14 15  2  0
 15 16  1  0
 16 17  2  0
 17 18  1  0
 18 19  2  0
 19 14  1  0
M  END
$$$$
