No_7196-complexes_sdf/6BKW-FPZ/2024-09-17-14-21-01/
     RDKit          3D

 16 17  0  0  0  0  0  0  0  0999 V2000
   -7.9040    3.9820   27.1177 C   0  0  0  0  0  0  0  0  0  0  0  0
   -7.8663    4.8694   27.9238 C   0  0  0  0  0  0  0  0  0  0  0  0
   -9.0491    3.8523   26.2542 C   0  0  0  0  0  0  0  0  0  0  0  0
   -8.7661    5.9491   27.9690 C   0  0  0  0  0  0  0  0  0  0  0  0
   -9.9295    4.8502   26.2323 C   0  0  0  0  0  0  0  0  0  0  0  0
   -9.8077    5.9288   27.0933 C   0  0  0  0  0  0  0  0  0  0  0  0
   -6.8002    2.6256   27.2024 Cl  0  0  0  0  0  0  0  0  0  0  0  0
   -9.1191    2.6984   25.2948 C   0  0  0  0  0  0  0  0  0  0  0  0
   -8.8100    1.5725   25.6384 N   0  0  0  0  0  0  0  0  0  0  0  0
   -9.7820    2.9029   24.2441 O   0  0  0  0  0  0  0  0  0  0  0  0
   -8.8951    0.3955   24.7899 C   0  0  0  0  0  0  0  0  0  0  0  0
   -8.0397   -0.5417   24.9533 C   0  0  0  0  0  0  0  0  0  0  0  0
   -7.2275   -0.8099   23.9002 C   0  0  0  0  0  0  0  0  0  0  0  0
   -7.6143   -0.4619   22.5189 C   0  0  0  0  0  0  0  0  0  0  0  0
   -8.6228    0.4798   22.4179 C   0  0  0  0  0  0  0  0  0  0  0  0
   -9.1927    0.8095   23.5050 C   0  0  0  0  0  0  0  0  0  0  0  0
  1  7  1  0
  3  8  1  0
  8  9  1  0
  8 10  2  0
  9 11  1  0
 11 12  2  0
 12 13  1  0
 13 14  2  0
 14 15  1  0
 15 16  2  0
 16 11  1  0
  1  2  2  0
  2  4  1  0
  4  6  2  0
  6  5  1  0
  5  3  2  0
  3  1  1  0
M  END
$$$$
