No_7786-complexes_sdf/6BKW-FPZ/2024-09-17-14-21-01/
     RDKit          3D

 24 26  0  0  0  0  0  0  0  0999 V2000
   -7.2496    3.8871   27.4508 C   0  0  0  0  0  0  0  0  0  0  0  0
   -7.6161    2.7143   27.1523 C   0  0  0  0  0  0  0  0  0  0  0  0
   -8.8302    2.4659   26.5056 C   0  0  0  0  0  0  0  0  0  0  0  0
   -8.1584    5.0090   27.3234 C   0  0  0  0  0  0  0  0  0  0  0  0
   -9.3788    4.7965   26.7695 C   0  0  0  0  0  0  0  0  0  0  0  0
   -9.7028    3.5649   26.3276 C   0  0  0  0  0  0  0  0  0  0  0  0
   -6.7182    1.5519   27.3631 C   0  0  0  0  0  0  0  0  0  0  0  0
   -5.4694    1.7365   28.0694 C   0  0  0  0  0  0  0  0  0  0  0  0
   -4.5986    0.6519   28.2611 C   0  0  0  0  0  0  0  0  0  0  0  0
   -5.0102   -0.6262   27.9715 C   0  0  0  0  0  0  0  0  0  0  0  0
   -7.0481    0.2248   27.1396 C   0  0  0  0  0  0  0  0  0  0  0  0
   -6.2697   -0.8020   27.4256 C   0  0  0  0  0  0  0  0  0  0  0  0
   -7.6962    6.3662   27.7798 C   0  0  0  0  0  0  0  0  0  0  0  0
   -3.0648    0.9924   29.0002 Cl  0  0  0  0  0  0  0  0  0  0  0  0
  -10.9940    3.3508   25.6286 C   0  0  0  0  0  0  0  0  0  0  0  0
  -11.2475    2.6214   24.9887 C   0  0  0  0  0  0  0  0  0  0  0  0
  -10.2875    1.5603   24.5981 C   0  0  0  0  0  0  0  0  0  0  0  0
   -9.1082    1.4434   25.4576 C   0  0  0  0  0  0  0  0  0  0  0  0
  -10.5210    0.3507   23.8177 C   0  0  0  0  0  0  0  0  0  0  0  0
  -10.7546    0.5261   22.5018 C   0  0  0  0  0  0  0  0  0  0  0  0
  -10.6867    1.6915   21.9101 C   0  0  0  0  0  0  0  0  0  0  0  0
  -11.0318    2.2920   21.1329 C   0  0  0  0  0  0  0  0  0  0  0  0
  -10.5784    3.6223   20.5749 C   0  0  0  0  0  0  0  0  0  0  0  0
   -9.9838    4.4242   21.4993 C   0  0  0  0  0  0  0  0  0  0  0  0
  2  7  1  0
  4 13  1  0
  9 14  1  0
 17 19  1  0
 19 20  1  0
 20 21  2  3
 21 22  1  0
 22 23  2  3
 23 24  1  0
  7  8  2  0
  8  9  1  0
  9 10  2  0
 10 12  1  0
 12 11  2  0
 11  7  1  0
  1  2  2  0
  2  3  1  0
  6  5  1  0
  5  4  2  0
  4  1  1  0
  3  6  2  0
  6 15  1  0
 15 16  2  0
 16 17  1  0
 17 18  2  0
 18  3  1  0
M  END
$$$$
