No_7850-complexes_sdf/6BKW-FPZ/2024-09-17-14-21-01/
     RDKit          3D

 13 14  0  0  0  0  0  0  0  0999 V2000
   -7.7129    4.2099   27.0854 C   0  0  0  0  0  0  0  0  0  0  0  0
   -8.9133    4.4736   27.0998 C   0  0  0  0  0  0  0  0  0  0  0  0
   -9.4643    5.5426   27.7628 C   0  0  0  0  0  0  0  0  0  0  0  0
   -6.8373    4.9942   27.9785 C   0  0  0  0  0  0  0  0  0  0  0  0
   -7.3932    6.0303   28.6784 C   0  0  0  0  0  0  0  0  0  0  0  0
   -8.7122    6.3429   28.5485 C   0  0  0  0  0  0  0  0  0  0  0  0
   -9.7912    3.6118   26.1875 C   0  0  0  0  0  0  0  0  0  0  0  0
  -10.6866    2.7803   26.6116 C   0  0  0  0  0  0  0  0  0  0  0  0
  -10.7702    2.5854   28.1098 C   0  0  0  0  0  0  0  0  0  0  0  0
  -11.6805    1.6108   28.6763 C   0  0  0  0  0  0  0  0  0  0  0  0
  -12.3849    0.8120   27.7876 C   0  0  0  0  0  0  0  0  0  0  0  0
  -12.3029    0.9335   26.4245 C   0  0  0  0  0  0  0  0  0  0  0  0
  -11.4670    1.8743   25.9007 C   0  0  0  0  0  0  0  0  0  0  0  0
  2  7  1  0
  7  8  1  0
  1  2  2  0
  2  3  1  0
  3  6  2  0
  6  5  1  0
  5  4  2  0
  4  1  1  0
  8  9  2  0
  9 10  1  0
 10 11  2  0
 11 12  1  0
 12 13  2  0
 13  8  1  0
M  END
$$$$
