No_7171-complexes_sdf/6BKW-FPZ/2024-09-17-14-21-01/
     RDKit          3D

 20 21  0  0  0  0  0  0  0  0999 V2000
   -7.7129    4.2099   27.0854 C   0  0  0  0  0  0  0  0  0  0  0  0
   -8.9133    4.4736   27.0998 C   0  0  0  0  0  0  0  0  0  0  0  0
   -9.4616    5.6470   27.6290 C   0  0  0  0  0  0  0  0  0  0  0  0
   -6.8722    5.1130   27.9248 C   0  0  0  0  0  0  0  0  0  0  0  0
   -7.3801    6.2535   28.4126 C   0  0  0  0  0  0  0  0  0  0  0  0
   -8.6734    6.5530   28.2150 C   0  0  0  0  0  0  0  0  0  0  0  0
   -9.8157    3.4887   26.3527 C   0  0  0  0  0  0  0  0  0  0  0  0
   -9.9163    3.5905   24.9383 C   0  0  0  0  0  0  0  0  0  0  0  0
  -10.5903    2.7150   24.1444 C   0  0  0  0  0  0  0  0  0  0  0  0
  -11.1844    1.6171   24.7355 C   0  0  0  0  0  0  0  0  0  0  0  0
  -10.4233    2.3367   26.7777 C   0  0  0  0  0  0  0  0  0  0  0  0
  -10.2938    2.1735   28.3761 C   0  0  0  0  0  0  0  0  0  0  0  0
  -11.1421    1.4052   26.0802 C   0  0  0  0  0  0  0  0  0  0  0  0
  -10.6226    2.9923   22.6926 C   0  0  1  0  0  0  0  0  0  0  0  0
  -10.8522    4.2687   22.2124 C   0  0  0  0  0  0  0  0  0  0  0  0
  -10.2631    2.0149   21.7531 C   0  0  0  0  0  0  0  0  0  0  0  0
  -11.0934    1.2141   21.2826 C   0  0  0  0  0  0  0  0  0  0  0  0
  -10.6465    0.0813   20.4578 C   0  0  0  0  0  0  0  0  0  0  0  0
  -11.5180   -0.5749   19.6715 C   0  0  0  0  0  0  0  0  0  0  0  0
  -12.8684   -0.2312   19.6969 C   0  0  0  0  0  0  0  0  0  0  0  0
  2  7  1  0
 11 12  1  0
  9 14  1  0
 14 15  1  1
 14 16  1  0
 16 17  2  3
 17 18  1  0
 18 19  2  3
 19 20  1  0
  1  2  2  0
  2  3  1  0
  3  6  2  0
  6  5  1  0
  5  4  2  0
  4  1  1  0
  7  8  2  0
  8  9  1  0
  9 10  2  0
 10 13  1  0
 13 11  2  0
 11  7  1  0
M  END
$$$$
