No_7078-complexes_sdf/6BKW-FPZ/2024-09-17-14-21-01/
     RDKit          3D

 24 27  0  0  0  0  0  0  0  0999 V2000
   -7.9040    3.9820   27.1177 C   0  0  0  0  0  0  0  0  0  0  0  0
   -7.8663    4.8694   27.9238 C   0  0  0  0  0  0  0  0  0  0  0  0
   -9.0491    3.8523   26.2542 C   0  0  0  0  0  0  0  0  0  0  0  0
   -9.4067    2.6808   25.6532 C   0  0  0  0  0  0  0  0  0  0  0  0
   -8.5920    5.9970   27.6971 N   0  0  0  0  0  0  0  0  0  0  0  0
   -9.6665    6.0483   26.9604 C   0  0  0  0  0  0  0  0  0  0  0  0
   -9.8262    4.9347   26.1706 C   0  0  0  0  0  0  0  0  0  0  0  0
   -8.9266    1.4601   26.1164 C   0  0  0  0  0  0  0  0  0  0  0  0
   -7.7984    1.5827   27.0805 C   0  0  0  0  0  0  0  0  0  0  0  0
   -7.3579    2.6663   27.5740 C   0  0  0  0  0  0  0  0  0  0  0  0
   -7.1394    0.2287   27.4104 C   0  0  0  0  0  0  0  0  0  0  0  0
   -5.8732    0.2291   27.7637 N   0  0  0  0  0  0  0  0  0  0  0  0
   -5.1959   -0.7699   28.2836 C   0  0  0  0  0  0  0  0  0  0  0  0
   -3.8668   -0.4247   28.6043 C   0  0  0  0  0  0  0  0  0  0  0  0
   -3.6859    0.9626   28.1515 C   0  0  0  0  0  0  0  0  0  0  0  0
   -4.9898    1.3589   27.7180 C   0  0  0  0  0  0  0  0  0  0  0  0
   -7.8360   -0.7693   27.4496 O   0  0  0  0  0  0  0  0  0  0  0  0
   -3.4274   -0.5815   30.0801 C   0  0  0  0  0  0  0  0  0  0  0  0
   -3.9970    0.1125   31.0730 C   0  0  0  0  0  0  0  0  0  0  0  0
   -3.5254   -0.0712   32.4132 C   0  0  0  0  0  0  0  0  0  0  0  0
   -2.3664   -1.5340   30.3971 C   0  0  0  0  0  0  0  0  0  0  0  0
   -1.7377   -2.2442   29.2648 C   0  0  0  0  0  0  0  0  0  0  0  0
   -2.4722   -0.9806   32.7298 C   0  0  0  0  0  0  0  0  0  0  0  0
   -1.8860   -1.6607   31.7100 C   0  0  0  0  0  0  0  0  0  0  0  0
  9 11  1  0
 11 12  1  0
 12 13  1  0
 13 14  2  0
 14 15  1  0
 12 16  1  0
 15 16  1  0
 11 17  2  0
 14 18  1  0
 21 22  1  0
  3  4  1  0
  4  8  2  0
  8  9  1  0
  9 10  2  0
 10  1  1  0
 18 19  2  0
 19 20  1  0
 20 23  2  0
 23 24  1  0
 24 21  2  0
 21 18  1  0
  1  2  2  0
  2  5  1  0
  5  6  2  0
  6  7  1  0
  7  3  2  0
  3  1  1  0
M  END
$$$$
