No_701-complexes_sdf/6BKW-FPZ/2024-09-17-14-21-01/
     RDKit          3D

 19 20  0  0  0  0  0  0  0  0999 V2000
   -7.9040    3.9820   27.1177 C   0  0  0  0  0  0  0  0  0  0  0  0
   -8.2057    2.8231   26.8733 C   0  0  0  0  0  0  0  0  0  0  0  0
   -8.7695    5.0740   26.7916 C   0  0  0  0  0  0  0  0  0  0  0  0
   -8.4337    6.4678   27.0913 C   0  0  0  0  0  0  0  0  0  0  0  0
   -9.3742    2.4311   26.2346 C   0  0  0  0  0  0  0  0  0  0  0  0
  -10.2395    3.4267   25.8887 C   0  0  0  0  0  0  0  0  0  0  0  0
   -9.9567    4.7548   26.1374 C   0  0  0  0  0  0  0  0  0  0  0  0
   -7.9449    7.5014   26.9590 N   0  0  0  0  0  0  0  0  0  0  0  0
   -7.2426    1.6814   27.2966 C   0  0  0  0  0  0  0  0  0  0  0  0
   -6.3576    2.1009   28.0989 F   0  0  0  0  0  0  0  0  0  0  0  0
   -7.6569    0.6585   27.7977 F   0  0  0  0  0  0  0  0  0  0  0  0
   -6.5750    1.2608   26.1241 F   0  0  0  0  0  0  0  0  0  0  0  0
  -11.4551    3.1040   25.1210 C   0  0  0  0  0  0  0  0  0  0  0  0
  -11.4207    2.0653   24.2548 C   0  0  0  0  0  0  0  0  0  0  0  0
  -10.3519    1.2995   24.1584 C   0  0  0  0  0  0  0  0  0  0  0  0
  -10.2993    0.1084   23.2761 C   0  0  0  0  0  0  0  0  0  0  0  0
  -11.3900   -0.2174   22.7689 C   0  0  0  0  0  0  0  0  0  0  0  0
  -12.5585    0.5430   22.8204 C   0  0  0  0  0  0  0  0  0  0  0  0
  -12.5558    1.6117   23.5793 C   0  0  0  0  0  0  0  0  0  0  0  0
  3  4  1  0
  4  8  3  0
  2  9  1  0
  9 10  1  0
  9 11  1  0
  9 12  1  0
  6 13  1  0
 13 14  1  0
 14 15  2  0
 15 16  1  0
 16 17  2  0
 17 18  1  0
 18 19  2  0
 19 14  1  0
  1  2  2  0
  2  5  1  0
  5  6  2  0
  6  7  1  0
  7  3  2  0
  3  1  1  0
M  END
$$$$
