No_7385-complexes_sdf/6BKW-FPZ/2024-09-17-14-21-01/
     RDKit          3D

 26 28  0  0  0  0  0  0  0  0999 V2000
   -7.9040    3.9820   27.1177 C   0  0  0  0  0  0  0  0  0  0  0  0
   -9.0711    4.3164   27.0630 C   0  0  0  0  0  0  0  0  0  0  0  0
   -9.5182    5.5541   27.5777 C   0  0  0  0  0  0  0  0  0  0  0  0
   -7.4468    2.6843   26.6499 C   0  0  0  0  0  0  0  0  0  0  0  0
   -8.3856    1.7878   26.2216 C   0  0  0  0  0  0  0  0  0  0  0  0
   -9.6812    2.2328   26.0889 C   0  0  0  0  0  0  0  0  0  0  0  0
  -10.0147    3.4312   26.5259 C   0  0  0  0  0  0  0  0  0  0  0  0
   -7.9143    0.4677   25.8109 C   0  0  0  0  0  0  0  0  0  0  0  0
   -8.3506   -0.4352   26.4493 C   0  0  0  0  0  0  0  0  0  0  0  0
   -7.9078   -1.8263   26.1693 C   0  0  0  0  0  0  0  0  0  0  0  0
   -6.9898   -1.9730   25.1737 C   0  0  0  0  0  0  0  0  0  0  0  0
   -6.5173   -0.8950   24.4540 C   0  0  0  0  0  0  0  0  0  0  0  0
   -6.9383    0.3572   24.7655 C   0  0  0  0  0  0  0  0  0  0  0  0
  -10.7229    5.7025   28.0695 F   0  0  0  0  0  0  0  0  0  0  0  0
   -9.3421    6.6817   26.7300 F   0  0  0  0  0  0  0  0  0  0  0  0
   -8.6495    6.0213   28.6398 F   0  0  0  0  0  0  0  0  0  0  0  0
   -8.3538   -2.9269   26.9037 N   0  0  0  0  0  0  0  0  0  0  0  0
   -9.4268   -3.3803   26.8420 C   0  0  0  0  0  0  0  0  0  0  0  0
  -10.3603   -3.0048   26.1346 C   0  0  0  0  0  0  0  0  0  0  0  0
  -11.7142   -3.4954   26.2574 C   0  0  0  0  0  0  0  0  0  0  0  0
   -9.9705   -3.8728   28.1870 C   0  0  0  0  0  0  0  0  0  0  0  0
  -11.2393   -4.3756   28.3820 C   0  0  0  0  0  0  0  0  0  0  0  0
  -12.1323   -4.0996   27.3781 C   0  0  0  0  0  0  0  0  0  0  0  0
   -7.2000   -3.8735   27.2332 C   0  0  0  0  0  0  0  0  0  0  0  0
   -7.0799   -4.8318   26.9279 C   0  0  0  0  0  0  0  0  0  0  0  0
   -6.0151   -5.6993   27.3596 C   0  0  0  0  0  0  0  0  0  0  0  0
  2  3  1  0
  5  8  1  0
  3 14  1  0
  3 15  1  0
  3 16  1  0
 10 17  1  0
 17 18  1  0
 17 24  1  0
 24 25  2  3
 25 26  1  0
  1  2  2  0
  2  7  1  0
  7  6  2  0
  6  5  1  0
  5  4  2  0
  4  1  1  0
  8  9  2  0
  9 10  1  0
 10 11  2  0
 11 12  1  0
 12 13  2  0
 13  8  1  0
 18 19  2  0
 19 20  1  0
 20 23  2  0
 23 22  1  0
 22 21  2  0
 21 18  1  0
M  END
$$$$
