No_7011-complexes_sdf/6BKW-FPZ/2024-09-17-14-21-01/
     RDKit          3D

 22 25  0  0  0  0  0  0  0  0999 V2000
   -7.7129    4.2099   27.0854 C   0  0  0  0  0  0  0  0  0  0  0  0
   -7.7814    5.1722   27.8972 C   0  0  0  0  0  0  0  0  0  0  0  0
   -8.8255    3.2789   27.1191 C   0  0  0  0  0  0  0  0  0  0  0  0
   -9.9209    3.4734   27.9101 C   0  0  0  0  0  0  0  0  0  0  0  0
  -10.0316    4.7089   28.6463 C   0  0  0  0  0  0  0  0  0  0  0  0
   -8.9258    5.5669   28.6427 C   0  0  0  0  0  0  0  0  0  0  0  0
   -8.6970    1.9978   26.3619 C   0  0  0  0  0  0  0  0  0  0  0  0
   -9.2367    1.0980   26.7333 C   0  0  0  0  0  0  0  0  0  0  0  0
  -10.4824    1.2222   27.5878 C   0  0  0  0  0  0  0  0  0  0  0  0
  -10.7822    2.3981   28.1663 C   0  0  0  0  0  0  0  0  0  0  0  0
   -9.1525   -0.2987   26.0653 C   0  0  0  0  0  0  0  0  0  0  0  0
   -9.1612   -0.4608   24.9276 C   0  0  0  0  0  0  0  0  0  0  0  0
   -9.4929    0.4205   24.0305 C   0  0  0  0  0  0  0  0  0  0  0  0
  -10.3384    1.2798   23.9906 C   0  0  0  0  0  0  0  0  0  0  0  0
  -10.5381    2.2526   22.9135 C   0  0  0  0  0  0  0  0  0  0  0  0
   -9.8167    2.0404   21.7705 C   0  0  0  0  0  0  0  0  0  0  0  0
   -8.6022    0.4886   22.7283 C   0  0  0  0  0  0  0  0  0  0  0  0
   -8.8510    1.2188   21.6708 C   0  0  0  0  0  0  0  0  0  0  0  0
   -8.6605   -1.7983   24.4092 C   0  0  0  0  0  0  0  0  0  0  0  0
   -8.8199   -1.3694   27.0749 C   0  0  0  0  0  0  0  0  0  0  0  0
   -8.9160   -2.5648   26.8103 C   0  0  0  0  0  0  0  0  0  0  0  0
   -8.7936   -2.8900   25.3877 C   0  0  0  0  0  0  0  0  0  0  0  0
  8 11  1  0
 12 13  1  0
  4 10  2  0
 10  9  1  0
  9  8  2  0
  8  7  1  0
  7  3  2  0
  1  2  2  0
  2  6  1  0
  6  5  2  0
  5  4  1  0
  4  3  1  0
  3  1  1  0
 11 12  1  0
 12 19  2  0
 19 22  1  0
 22 21  2  0
 21 20  1  0
 20 11  2  0
 13 14  2  0
 14 15  1  0
 15 16  2  0
 16 18  1  0
 18 17  2  0
 17 13  1  0
M  END
$$$$
