No_7953-complexes_sdf/6BKW-FPZ/2024-09-17-14-21-01/
     RDKit          3D

 21 24  0  0  0  0  0  0  0  0999 V2000
   -7.9040    3.9820   27.1177 C   0  0  0  0  0  0  0  0  0  0  0  0
   -7.8663    4.8694   27.9238 C   0  0  1  0  0  0  0  0  0  0  0  0
   -9.0491    3.8523   26.2542 C   0  0  0  0  0  0  0  0  0  0  0  0
   -6.5926    5.1015   28.6929 C   0  0  0  0  0  0  0  0  0  0  0  0
   -9.8983    4.9345   26.2676 C   0  0  2  0  0  0  0  0  0  0  0  0
  -11.0122    4.7958   25.4247 C   0  0  0  0  0  0  0  0  0  0  0  0
  -10.9922    3.8649   24.3278 C   0  0  0  0  0  0  0  0  0  0  0  0
  -10.0541    2.8621   24.3280 C   0  0  0  0  0  0  0  0  0  0  0  0
   -9.0359    2.8761   25.2483 C   0  0  0  0  0  0  0  0  0  0  0  0
   -5.6999    4.1348   28.4830 N   0  0  0  0  0  0  0  0  0  0  0  0
   -6.6576    3.2167   27.1638 C   0  0  0  0  0  0  0  0  0  0  0  0
  -12.1104    3.8525   23.3733 C   0  0  0  0  0  0  0  0  0  0  0  0
  -12.7076    2.9648   23.3933 C   0  0  0  0  0  0  0  0  0  0  0  0
  -13.8199    2.8444   22.3174 C   0  0  0  0  0  0  0  0  0  0  0  0
  -13.9829    3.8693   21.4623 C   0  0  0  0  0  0  0  0  0  0  0  0
  -13.1557    4.9898   21.5395 C   0  0  0  0  0  0  0  0  0  0  0  0
  -12.1611    5.0652   22.4774 C   0  0  0  0  0  0  0  0  0  0  0  0
   -8.9799    6.2884   28.0361 P   0  0  1  0  0  0  0  0  0  0  0  0
   -8.4298    7.1401   28.5626 O   0  0  0  0  0  0  0  0  0  0  0  0
   -9.3593    6.1684   26.7140 O   0  0  0  0  0  0  0  0  0  0  0  0
  -10.1319    5.4954   28.6906 O   0  0  0  0  0  0  0  0  0  0  0  0
  1  2  1  0
  1  3  2  0
  2  4  1  6
  3  5  1  0
  5  6  1  0
  6  7  2  0
  7  8  1  0
  3  9  1  0
  8  9  2  0
  4 10  2  0
  1 11  1  0
 10 11  1  0
  7 12  1  0
 12 13  2  0
 13 14  1  0
 14 15  2  0
 15 16  1  0
 12 17  1  0
 16 17  1  0
  2 18  1  0
 18 19  2  0
  5 20  1  6
 18 20  1  0
 18 21  1  1
M  END
$$$$
