No_7486-complexes_sdf/6BKW-FPZ/2024-09-17-14-21-01/
     RDKit          3D

 13 13  0  0  0  0  0  0  0  0999 V2000
   -7.7129    4.2099   27.0854 C   0  0  0  0  0  0  0  0  0  0  0  0
   -8.2112    3.0637   26.9225 C   0  0  0  0  0  0  0  0  0  0  0  0
   -8.5108    5.3904   26.9436 C   0  0  0  0  0  0  0  0  0  0  0  0
   -9.7256    5.1955   26.3518 C   0  0  0  0  0  0  0  0  0  0  0  0
   -9.4995    2.8258   26.4878 C   0  0  0  0  0  0  0  0  0  0  0  0
  -10.2542    3.9691   26.2055 C   0  0  0  0  0  0  0  0  0  0  0  0
   -7.9168    6.7086   27.1908 C   0  0  2  0  0  0  0  0  0  0  0  0
   -7.2060    1.6352   27.3301 Cl  0  0  0  0  0  0  0  0  0  0  0  0
   -6.9766    6.7395   28.0245 F   0  0  0  0  0  0  0  0  0  0  0  0
   -8.3722    7.8968   26.6345 C   0  0  0  0  0  0  0  0  0  0  0  0
  -11.5873    3.7952   25.6136 C   0  0  0  0  0  0  0  0  0  0  0  0
  -11.7736    4.0092   24.2692 C   0  0  0  0  0  0  0  0  0  0  0  0
  -13.0290    3.8861   23.6320 C   0  0  0  0  0  0  0  0  0  0  0  0
  3  7  1  0
  2  8  1  0
  7  9  1  0
  7 10  1  1
  6 11  1  0
 11 12  2  3
 12 13  1  0
  1  2  2  0
  2  5  1  0
  5  6  2  0
  6  4  1  0
  4  3  2  0
  3  1  1  0
M  END
$$$$
