No_7927-complexes_sdf/6BKW-FPZ/2024-09-17-14-21-01/
     RDKit          3D

 24 26  0  0  0  0  0  0  0  0999 V2000
   -7.7129    4.2099   27.0854 C   0  0  0  0  0  0  0  0  0  0  0  0
   -7.7814    5.1722   27.8972 C   0  0  0  0  0  0  0  0  0  0  0  0
   -8.8998    3.8713   26.3707 C   0  0  0  0  0  0  0  0  0  0  0  0
   -9.9938    4.6774   26.5446 C   0  0  0  0  0  0  0  0  0  0  0  0
   -8.7789    6.1536   27.9256 C   0  0  0  0  0  0  0  0  0  0  0  0
   -9.9428    5.8398   27.2296 C   0  0  0  0  0  0  0  0  0  0  0  0
   -8.9119    2.6447   25.5685 C   0  0  1  0  0  0  0  0  0  0  0  0
   -8.3051    1.4797   26.1124 C   0  0  0  0  0  0  0  0  0  0  0  0
   -7.8595    1.4792   27.3798 C   0  0  0  0  0  0  0  0  0  0  0  0
   -8.3661    0.2549   25.3374 C   0  0  0  0  0  0  0  0  0  0  0  0
   -7.2424    0.1991   27.8202 C   0  0  0  0  0  0  0  0  0  0  0  0
   -7.8082   -0.8903   25.8123 C   0  0  0  0  0  0  0  0  0  0  0  0
   -7.2348   -0.9072   27.1085 C   0  0  0  0  0  0  0  0  0  0  0  0
   -9.5653    2.6681   24.3461 C   0  0  0  0  0  0  0  0  0  0  0  0
  -10.8787    2.7920   24.3066 C   0  0  0  0  0  0  0  0  0  0  0  0
  -11.5717    2.7731   23.4756 C   0  0  0  0  0  0  0  0  0  0  0  0
  -13.0569    2.9873   23.4598 C   0  0  0  0  0  0  0  0  0  0  0  0
  -13.5005    2.9903   24.3807 C   0  0  0  0  0  0  0  0  0  0  0  0
  -14.9795    3.2039   24.5663 C   0  0  0  0  0  0  0  0  0  0  0  0
  -11.8539    2.9599   25.5868 C   0  0  0  0  0  0  0  0  0  0  0  0
  -13.0726    3.0752   25.6045 C   0  0  0  0  0  0  0  0  0  0  0  0
  -15.7611    3.3986   23.7712 O   0  0  0  0  0  0  0  0  0  0  0  0
  -15.6459    3.6544   25.7027 F   0  0  0  0  0  0  0  0  0  0  0  0
   -6.6269    5.5957   28.5882 O   0  0  0  0  0  0  0  0  0  0  0  0
  3  7  1  0
  7  8  1  0
  7 14  1  1
 18 19  1  0
 19 22  2  0
 19 23  1  0
  2 24  1  0
 14 15  1  0
  8  9  2  0
  9 11  1  0
 11 13  2  0
 13 12  1  0
 12 10  2  0
 10  8  1  0
 15 16  2  0
 16 17  1  0
 17 18  2  0
 18 21  1  0
 21 20  2  0
 20 15  1  0
  1  2  2  0
  2  5  1  0
  5  6  2  0
  6  4  1  0
  4  3  2  0
  3  1  1  0
M  END
$$$$
