No_7932-complexes_sdf/6BKW-FPZ/2024-09-17-14-21-01/
     RDKit          3D

 13 14  0  0  0  0  0  0  0  0999 V2000
   -7.2496    3.8871   27.4508 C   0  0  0  0  0  0  0  0  0  0  0  0
   -7.6161    2.7143   27.1523 C   0  0  0  0  0  0  0  0  0  0  0  0
   -8.6317    1.7745   26.9900 C   0  0  0  0  0  0  0  0  0  0  0  0
   -8.5139    4.6994   27.4643 C   0  0  0  0  0  0  0  0  0  0  0  0
   -9.7625    4.1089   27.3434 C   0  0  0  0  0  0  0  0  0  0  0  0
   -9.8436    2.7373   27.1429 C   0  0  0  0  0  0  0  0  0  0  0  0
   -8.3470    6.1432   27.7421 C   0  0  0  0  0  0  0  0  0  0  0  0
   -7.1122    6.7135   27.4373 C   0  0  0  0  0  0  0  0  0  0  0  0
   -8.9359    0.5731   26.8873 N   0  0  0  0  0  0  0  0  0  0  0  0
   -9.9570   -0.0245   27.2167 C   0  0  0  0  0  0  0  0  0  0  0  0
  -11.1850    0.7219   27.4855 C   0  0  0  0  0  0  0  0  0  0  0  0
  -11.1045    2.0361   27.4488 C   0  0  0  0  0  0  0  0  0  0  0  0
   -7.1452    8.1680   27.1333 C   0  0  0  0  0  0  0  0  0  0  0  0
  4  7  1  0
  7  8  2  3
  8 13  1  0
  6 12  2  0
 12 11  1  0
 11 10  2  0
 10  9  1  0
  9  3  2  0
  1  2  2  0
  2  3  1  0
  3  6  1  0
  6  5  1  0
  5  4  2  0
  4  1  1  0
M  END
$$$$
