No_7161-complexes_sdf/6BKW-FPZ/2024-09-17-14-21-01/
     RDKit          3D

 27 29  0  0  0  0  0  0  0  0999 V2000
   -7.9040    3.9820   27.1177 C   0  0  0  0  0  0  0  0  0  0  0  0
   -8.2057    2.8231   26.8733 C   0  0  0  0  0  0  0  0  0  0  0  0
   -9.2962    2.4021   26.1155 C   0  0  0  0  0  0  0  0  0  0  0  0
   -8.7358    5.0662   26.5917 C   0  0  0  0  0  0  0  0  0  0  0  0
   -9.7618    4.7023   25.7546 C   0  0  0  0  0  0  0  0  0  0  0  0
  -10.0066    3.4105   25.4922 C   0  0  0  0  0  0  0  0  0  0  0  0
   -8.3943    6.4760   26.8801 C   0  0  0  0  0  0  0  0  0  0  0  0
   -8.0574    7.5061   27.0291 N   0  0  0  0  0  0  0  0  0  0  0  0
   -7.2018    1.5105   27.6099 Cl  0  0  0  0  0  0  0  0  0  0  0  0
  -11.0085    3.0656   24.6992 F   0  0  0  0  0  0  0  0  0  0  0  0
   -9.5469    0.9887   25.7813 C   0  0  0  0  0  0  0  0  0  0  0  0
   -8.8694    0.3243   24.8209 C   0  0  0  0  0  0  0  0  0  0  0  0
   -9.0781   -1.0185   24.5011 C   0  0  0  0  0  0  0  0  0  0  0  0
  -10.0156   -1.6778   25.2603 C   0  0  0  0  0  0  0  0  0  0  0  0
  -10.6799   -1.0402   26.3000 C   0  0  0  0  0  0  0  0  0  0  0  0
  -10.5139    0.2074   26.6419 C   0  0  0  0  0  0  0  0  0  0  0  0
  -11.8030   -1.9930   27.2712 Cl  0  0  0  0  0  0  0  0  0  0  0  0
   -8.3774   -1.6177   23.3900 C   0  0  0  0  0  0  0  0  0  0  0  0
   -8.2681   -1.1642   22.3502 O   0  0  0  0  0  0  0  0  0  0  0  0
   -7.8618   -2.7776   23.6301 O   0  0  0  0  0  0  0  0  0  0  0  0
  -11.1783    1.0780   27.6559 C   0  0  0  0  0  0  0  0  0  0  0  0
  -12.3886    1.8774   27.4392 C   0  0  0  0  0  0  0  0  0  0  0  0
  -13.2385    1.7479   28.1872 C   0  0  0  0  0  0  0  0  0  0  0  0
  -14.5145    2.5419   28.1047 C   0  0  0  0  0  0  0  0  0  0  0  0
  -14.5415    3.4661   27.0834 C   0  0  0  0  0  0  0  0  0  0  0  0
  -13.5022    3.5585   26.1670 C   0  0  0  0  0  0  0  0  0  0  0  0
  -12.3864    2.7816   26.3630 C   0  0  0  0  0  0  0  0  0  0  0  0
  4  7  1  0
  7  8  3  0
  2  9  1  0
  6 10  1  0
  3 11  1  0
 15 17  1  0
 13 18  1  0
 18 19  2  0
 18 20  1  0
 16 21  1  0
 21 22  1  0
 11 12  2  0
 12 13  1  0
 13 14  2  0
 14 15  1  0
 15 16  2  0
 16 11  1  0
 22 23  2  0
 23 24  1  0
 24 25  2  0
 25 26  1  0
 26 27  2  0
 27 22  1  0
  1  2  2  0
  2  3  1  0
  3  6  2  0
  6  5  1  0
  5  4  2  0
  4  1  1  0
M  END
$$$$
