No_7221-complexes_sdf/6BKW-FPZ/2024-09-17-14-21-01/
     RDKit          3D

 22 25  0  0  0  0  0  0  0  0999 V2000
   -7.2496    3.8871   27.4508 C   0  0  0  0  0  0  0  0  0  0  0  0
   -7.6161    2.7143   27.1523 C   0  0  0  0  0  0  0  0  0  0  0  0
   -7.1618    1.8631   27.5232 C   0  0  0  0  0  0  0  0  0  0  0  0
   -8.0036    5.1085   27.2100 C   0  0  0  0  0  0  0  0  0  0  0  0
   -9.0765    5.1561   26.4023 C   0  0  0  0  0  0  0  0  0  0  0  0
   -9.5423    3.9741   25.8512 C   0  0  0  0  0  0  0  0  0  0  0  0
   -8.8464    2.7352   26.2620 C   0  0  0  0  0  0  0  0  0  0  0  0
   -7.5745    0.4314   27.2995 C   0  0  0  0  0  0  0  0  0  0  0  0
   -8.7724    0.3253   26.5754 C   0  0  1  0  0  0  0  0  0  0  0  0
   -9.4214    1.4876   25.9818 C   0  0  1  0  0  0  0  0  0  0  0  0
   -7.4545    6.4163   27.8250 C   0  0  0  0  0  0  0  0  0  0  0  0
  -10.6026    3.9360   24.9125 C   0  0  0  0  0  0  0  0  0  0  0  0
  -11.8887    3.7699   25.3965 C   0  0  0  0  0  0  0  0  0  0  0  0
  -10.4068    4.1219   23.5519 C   0  0  0  0  0  0  0  0  0  0  0  0
  -12.9923    3.7486   24.5867 C   0  0  0  0  0  0  0  0  0  0  0  0
  -11.4299    4.2478   22.6627 C   0  0  0  0  0  0  0  0  0  0  0  0
  -12.7593    4.0771   23.2268 C   0  0  0  0  0  0  0  0  0  0  0  0
   -9.2966   -1.0066   26.2460 C   0  0  0  0  0  0  0  0  0  0  0  0
  -10.4657   -1.1617   26.1818 C   0  0  0  0  0  0  0  0  0  0  0  0
  -11.3871   -0.1747   26.5804 C   0  0  0  0  0  0  0  0  0  0  0  0
  -10.9336    1.2354   26.1715 C   0  0  0  0  0  0  0  0  0  0  0  0
   -9.1960    1.2010   24.3847 C   0  0  0  0  0  0  0  0  0  0  0  0
  3  8  1  0
  7 10  1  0
  9 10  1  0
  4 11  1  0
  6 12  1  0
  9 18  1  6
 19 20  1  0
 10 21  1  0
 20 21  1  0
 10 22  1  6
  2  3  1  0
  8  9  1  0
 18 19  1  0
 12 13  2  0
 13 15  1  0
 15 17  2  0
 17 16  1  0
 16 14  2  0
 14 12  1  0
  1  2  2  0
  2  7  1  0
  7  6  2  0
  6  5  1  0
  5  4  2  0
  4  1  1  0
M  END
$$$$
