No_7327-complexes_sdf/6BKW-FPZ/2024-09-17-14-21-01/
     RDKit          3D

 14 15  0  0  0  0  0  0  0  0999 V2000
   -7.9040    3.9820   27.1177 C   0  0  0  0  0  0  0  0  0  0  0  0
   -7.8663    4.8694   27.9238 C   0  0  0  0  0  0  0  0  0  0  0  0
   -9.0501    3.8017   26.2617 C   0  0  0  0  0  0  0  0  0  0  0  0
  -10.0189    4.7608   26.3707 C   0  0  0  0  0  0  0  0  0  0  0  0
   -8.6973    5.9722   27.8968 C   0  0  0  0  0  0  0  0  0  0  0  0
   -9.8216    5.8946   27.1241 C   0  0  0  0  0  0  0  0  0  0  0  0
   -9.1269    2.7578   25.4915 F   0  0  0  0  0  0  0  0  0  0  0  0
   -7.0017    2.9124   27.1230 O   0  0  0  0  0  0  0  0  0  0  0  0
   -7.3750    1.5762   27.0676 C   0  0  0  0  0  0  0  0  0  0  0  0
   -6.2504    0.7306   27.1655 C   0  0  0  0  0  0  0  0  0  0  0  0
   -6.4144   -0.6495   27.0961 C   0  0  0  0  0  0  0  0  0  0  0  0
   -7.7457   -1.1058   26.9195 C   0  0  0  0  0  0  0  0  0  0  0  0
   -8.8289   -0.2706   26.8213 C   0  0  0  0  0  0  0  0  0  0  0  0
   -8.6089    1.1263   26.9506 C   0  0  0  0  0  0  0  0  0  0  0  0
  3  7  1  0
  1  8  1  0
  8  9  1  0
  9 10  2  0
 10 11  1  0
 11 12  2  0
 12 13  1  0
 13 14  2  0
 14  9  1  0
  1  2  2  0
  2  5  1  0
  5  6  2  0
  6  4  1  0
  4  3  2  0
  3  1  1  0
M  END
$$$$
