No_7557-complexes_sdf/6BKW-FPZ/2024-09-17-14-21-01/
     RDKit          3D

 26 29  0  0  0  0  0  0  0  0999 V2000
   -7.9040    3.9820   27.1177 C   0  0  0  0  0  0  0  0  0  0  0  0
   -7.8663    4.8694   27.9238 C   0  0  0  0  0  0  0  0  0  0  0  0
   -7.4547    2.7080   27.4594 C   0  0  0  0  0  0  0  0  0  0  0  0
   -7.9337    1.5946   26.8372 C   0  0  0  0  0  0  0  0  0  0  0  0
   -8.9603    1.7678   26.1391 C   0  0  0  0  0  0  0  0  0  0  0  0
   -9.5151    2.9338   25.7451 C   0  0  0  0  0  0  0  0  0  0  0  0
   -9.0514    3.9881   26.3110 C   0  0  0  0  0  0  0  0  0  0  0  0
   -8.1879    6.2399   27.5870 N   0  0  0  0  0  0  0  0  0  0  0  0
   -9.1947    6.5871   26.7797 C   0  0  0  0  0  0  0  0  0  0  0  0
   -9.6414    5.3736   26.0326 C   0  0  0  0  0  0  0  0  0  0  0  0
   -7.4349    0.1824   27.0949 C   0  0  0  0  0  0  0  0  0  0  0  0
   -8.0194   -0.7703   27.2508 O   0  0  0  0  0  0  0  0  0  0  0  0
   -6.0549    0.1403   27.2615 O   0  0  0  0  0  0  0  0  0  0  0  0
   -5.4079    0.2197   28.2890 C   0  0  0  0  0  0  0  0  0  0  0  0
   -4.9868   -0.8940   29.0581 C   0  0  0  0  0  0  0  0  0  0  0  0
   -3.8651   -1.1361   28.9594 C   0  0  0  0  0  0  0  0  0  0  0  0
   -4.5543    1.4321   28.5890 C   0  0  0  0  0  0  0  0  0  0  0  0
   -3.3227    1.2483   29.1174 N   0  0  0  0  0  0  0  0  0  0  0  0
   -2.9630   -0.0653   29.5094 C   0  0  0  0  0  0  0  0  0  0  0  0
  -10.4699    2.9247   24.8056 F   0  0  0  0  0  0  0  0  0  0  0  0
   -3.3710   -1.5578   27.5721 C   0  0  0  0  0  0  0  0  0  0  0  0
   -3.0706   -0.7636   26.6532 C   0  0  0  0  0  0  0  0  0  0  0  0
   -3.2533   -2.9882   27.4430 C   0  0  0  0  0  0  0  0  0  0  0  0
   -3.1237   -3.5191   26.2714 C   0  0  0  0  0  0  0  0  0  0  0  0
   -2.7455   -1.3393   25.2601 C   0  0  0  0  0  0  0  0  0  0  0  0
   -2.7435   -2.6686   25.1637 C   0  0  0  0  0  0  0  0  0  0  0  0
  4 11  1  0
 11 12  2  0
 11 13  1  0
 13 14  1  0
  6 20  1  0
 16 21  1  0
  1  2  2  0
  2  8  1  0
  8  9  2  0
  9 10  1  0
 10  7  2  0
 21 22  2  0
 22 25  1  0
 25 26  2  0
 26 24  1  0
 24 23  2  0
 23 21  1  0
 14 15  2  0
 15 16  1  0
 16 19  2  0
 19 18  1  0
 18 17  2  0
 17 14  1  0
  1  3  1  0
  3  4  2  0
  4  5  1  0
  5  6  2  0
  6  7  1  0
  7  1  1  0
M  END
$$$$
