No_7630-complexes_sdf/6BKW-FPZ/2024-09-17-14-21-01/
     RDKit          3D

 18 19  0  0  0  0  0  0  0  0999 V2000
   -7.9040    3.9820   27.1177 C   0  0  0  0  0  0  0  0  0  0  0  0
   -8.2057    2.8231   26.8733 C   0  0  0  0  0  0  0  0  0  0  0  0
   -9.2962    2.4021   26.1155 C   0  0  0  0  0  0  0  0  0  0  0  0
   -8.7358    5.0662   26.5917 C   0  0  0  0  0  0  0  0  0  0  0  0
   -9.7618    4.7023   25.7546 C   0  0  0  0  0  0  0  0  0  0  0  0
  -10.0066    3.4105   25.4922 C   0  0  0  0  0  0  0  0  0  0  0  0
   -8.3936    6.4769   26.8843 C   0  0  2  0  0  0  0  0  0  0  0  0
   -8.2680    6.9314   28.4327 Cl  0  0  0  0  0  0  0  0  0  0  0  0
   -8.4557    7.4799   25.8916 C   0  0  0  0  0  0  0  0  0  0  0  0
   -7.2065    1.4947   27.5852 Cl  0  0  0  0  0  0  0  0  0  0  0  0
  -11.0956    3.1009   24.5679 C   0  0  0  0  0  0  0  0  0  0  0  0
  -12.3047    2.7160   24.9938 C   0  0  0  0  0  0  0  0  0  0  0  0
  -11.0276    3.6818   23.2650 C   0  0  0  0  0  0  0  0  0  0  0  0
  -11.9710    3.5185   22.2831 C   0  0  0  0  0  0  0  0  0  0  0  0
  -13.3359    2.5009   24.0417 C   0  0  0  0  0  0  0  0  0  0  0  0
  -13.1664    2.9744   22.7230 C   0  0  0  0  0  0  0  0  0  0  0  0
   -9.7748    0.8362   25.6773 Cl  0  0  0  0  0  0  0  0  0  0  0  0
  -14.5219    2.0499   24.3922 F   0  0  0  0  0  0  0  0  0  0  0  0
  4  7  1  0
  7  8  1  0
  7  9  1  1
  2 10  1  0
  6 11  1  0
  3 17  1  0
 15 18  1  0
 11 12  2  0
 12 15  1  0
 15 16  2  0
 16 14  1  0
 14 13  2  0
 13 11  1  0
  1  2  2  0
  2  3  1  0
  3  6  2  0
  6  5  1  0
  5  4  2  0
  4  1  1  0
M  END
$$$$
