No_7164-complexes_sdf/6BKW-FPZ/2024-09-17-14-21-01/
     RDKit          3D

 16 17  0  0  0  0  0  0  0  0999 V2000
   -7.9040    3.9820   27.1177 C   0  0  0  0  0  0  0  0  0  0  0  0
   -7.8663    4.8694   27.9238 C   0  0  0  0  0  0  0  0  0  0  0  0
   -9.0491    3.8523   26.2542 C   0  0  0  0  0  0  0  0  0  0  0  0
   -8.7661    5.9491   27.9690 C   0  0  0  0  0  0  0  0  0  0  0  0
   -9.9295    4.8502   26.2323 C   0  0  0  0  0  0  0  0  0  0  0  0
   -9.8077    5.9288   27.0933 C   0  0  0  0  0  0  0  0  0  0  0  0
   -7.0146    2.9513   27.1368 F   0  0  0  0  0  0  0  0  0  0  0  0
   -9.1015    2.7190   25.2776 C   0  0  2  0  0  0  0  0  0  0  0  0
  -10.1526    2.8025   24.3137 C   0  0  0  0  0  0  0  0  0  0  0  0
  -10.3285    3.8151   23.5419 C   0  0  0  0  0  0  0  0  0  0  0  0
  -11.1594    3.7218   22.4489 C   0  0  0  0  0  0  0  0  0  0  0  0
  -11.7684    2.5798   22.0754 C   0  0  0  0  0  0  0  0  0  0  0  0
  -10.6128    1.5561   23.8406 C   0  0  0  0  0  0  0  0  0  0  0  0
  -11.4392    1.4703   22.7657 C   0  0  0  0  0  0  0  0  0  0  0  0
   -8.4247    1.5122   25.5491 C   0  0  0  0  0  0  0  0  0  0  0  0
   -8.1610    0.7504   24.7087 O   0  0  0  0  0  0  0  0  0  0  0  0
  1  7  1  0
  3  8  1  0
  8  9  1  0
  8 15  1  1
 15 16  2  0
  1  2  2  0
  2  4  1  0
  4  6  2  0
  6  5  1  0
  5  3  2  0
  3  1  1  0
  9 10  2  0
 10 11  1  0
 11 12  2  0
 12 14  1  0
 14 13  2  0
 13  9  1  0
M  END
$$$$
