No_7555-complexes_sdf/6BKW-FPZ/2024-09-17-14-21-01/
     RDKit          3D

 22 24  0  0  0  0  0  0  0  0999 V2000
   -7.9040    3.9820   27.1177 C   0  0  0  0  0  0  0  0  0  0  0  0
   -7.8663    4.8694   27.9238 C   0  0  0  0  0  0  0  0  0  0  0  0
   -9.0491    3.8523   26.2542 C   0  0  0  0  0  0  0  0  0  0  0  0
   -8.7661    5.9491   27.9690 C   0  0  0  0  0  0  0  0  0  0  0  0
   -9.9295    4.8502   26.2323 C   0  0  0  0  0  0  0  0  0  0  0  0
   -9.8077    5.9288   27.0933 C   0  0  0  0  0  0  0  0  0  0  0  0
   -9.0726    2.7074   25.3087 C   0  0  0  0  0  0  0  0  0  0  0  0
   -9.9788    1.8124   25.6868 C   0  0  0  0  0  0  0  0  0  0  0  0
   -9.8886    0.6639   25.0471 C   0  0  0  0  0  0  0  0  0  0  0  0
  -10.8486   -0.2316   25.1579 C   0  0  0  0  0  0  0  0  0  0  0  0
  -11.8375   -0.0745   26.0796 C   0  0  0  0  0  0  0  0  0  0  0  0
  -11.1674    1.8621   26.5298 C   0  0  0  0  0  0  0  0  0  0  0  0
  -12.0149    0.9435   26.8412 C   0  0  0  0  0  0  0  0  0  0  0  0
   -8.8685    0.4472   23.9489 C   0  0  1  0  0  0  0  0  0  0  0  0
   -7.6996   -0.2468   24.3351 C   0  0  0  0  0  0  0  0  0  0  0  0
   -9.1015    0.8093   22.6093 C   0  0  0  0  0  0  0  0  0  0  0  0
   -6.8343   -0.7349   23.4091 C   0  0  0  0  0  0  0  0  0  0  0  0
   -5.6852   -1.3799   23.8759 C   0  0  0  0  0  0  0  0  0  0  0  0
   -5.3846   -1.4115   25.2431 C   0  0  0  0  0  0  0  0  0  0  0  0
   -7.3749   -0.3126   25.7426 C   0  0  0  0  0  0  0  0  0  0  0  0
   -6.2063   -0.9138   26.1566 C   0  0  0  0  0  0  0  0  0  0  0  0
   -6.9798    2.9637   27.1537 O   0  0  0  0  0  0  0  0  0  0  0  0
  3  7  1  0
  7  8  1  0
  9 14  1  0
 14 15  1  0
 14 16  1  6
  1 22  1  0
 15 17  2  0
 17 18  1  0
 18 19  2  0
 19 21  1  0
 21 20  2  0
 20 15  1  0
  1  2  2  0
  2  4  1  0
  4  6  2  0
  6  5  1  0
  5  3  2  0
  3  1  1  0
  8  9  1  0
  9 10  2  0
 10 11  1  0
 11 13  2  0
 13 12  1  0
 12  8  2  0
M  END
$$$$
