No_7650-complexes_sdf/6BKW-FPZ/2024-09-17-14-21-01/
     RDKit          3D

 40 44  0  0  0  0  0  0  0  0999 V2000
   -7.2496    3.8871   27.4508 C   0  0  0  0  0  0  0  0  0  0  0  0
   -7.9379    4.9063   27.8518 C   0  0  0  0  0  0  0  0  0  0  0  0
   -9.3376    4.8647   27.7795 C   0  0  0  0  0  0  0  0  0  0  0  0
   -7.8544    2.6294   27.0414 C   0  0  0  0  0  0  0  0  0  0  0  0
   -9.2852    2.6570   27.0666 C   0  0  0  0  0  0  0  0  0  0  0  0
  -10.0126    3.7528   27.4890 C   0  0  0  0  0  0  0  0  0  0  0  0
  -11.5186    3.8830   27.5378 C   0  0  0  0  0  0  0  0  0  0  0  0
  -12.1846    4.3291   26.9175 C   0  0  0  0  0  0  0  0  0  0  0  0
  -13.6816    4.4728   26.9746 C   0  0  0  0  0  0  0  0  0  0  0  0
  -12.0534    2.9477   28.6434 C   0  0  0  0  0  0  0  0  0  0  0  0
  -13.4575    2.9833   28.8551 C   0  0  0  0  0  0  0  0  0  0  0  0
  -14.2417    3.7456   28.0014 C   0  0  0  0  0  0  0  0  0  0  0  0
   -7.1389    1.4704   26.7424 C   0  0  0  0  0  0  0  0  0  0  0  0
   -7.6979    0.5953   25.9012 N   0  0  0  0  0  0  0  0  0  0  0  0
   -7.1165   -0.5957   25.6699 C   0  0  0  0  0  0  0  0  0  0  0  0
   -6.0860    1.2148   27.4243 O   0  0  0  0  0  0  0  0  0  0  0  0
   -7.2670    6.0661   28.1945 O   0  0  0  0  0  0  0  0  0  0  0  0
   -7.1313   -0.9667   24.3631 C   0  0  0  0  0  0  0  0  0  0  0  0
   -6.1404   -1.7342   23.8614 C   0  0  0  0  0  0  0  0  0  0  0  0
   -6.0905   -2.0243   22.4145 C   0  0  0  0  0  0  0  0  0  0  0  0
   -7.1173   -1.5574   21.5835 C   0  0  0  0  0  0  0  0  0  0  0  0
   -8.1207   -0.7698   22.1343 C   0  0  0  0  0  0  0  0  0  0  0  0
   -8.0675   -0.4262   23.4976 C   0  0  0  0  0  0  0  0  0  0  0  0
   -6.6408   -1.2856   26.5600 O   0  0  0  0  0  0  0  0  0  0  0  0
  -15.7309    3.7647   28.1376 C   0  0  0  0  0  0  0  0  0  0  0  0
  -16.4023    4.2634   27.4560 C   0  0  0  0  0  0  0  0  0  0  0  0
  -15.8409    5.1377   26.3165 C   0  0  0  0  0  0  0  0  0  0  0  0
  -14.4834    5.2354   26.0935 C   0  0  0  0  0  0  0  0  0  0  0  0
   -9.2132   -0.2871   21.2638 C   0  0  0  0  0  0  0  0  0  0  0  0
   -9.8032    0.9536   21.5815 C   0  0  0  0  0  0  0  0  0  0  0  0
  -10.8334    1.5180   20.8040 C   0  0  0  0  0  0  0  0  0  0  0  0
  -11.3443    2.7754   21.0866 C   0  0  0  0  0  0  0  0  0  0  0  0
  -10.9214    3.5625   22.2059 C   0  0  0  0  0  0  0  0  0  0  0  0
   -9.9767    2.9046   23.0623 C   0  0  0  0  0  0  0  0  0  0  0  0
   -9.4849    1.7537   22.8009 C   0  0  0  0  0  0  0  0  0  0  0  0
  -11.5933    4.8165   22.3936 C   0  0  0  0  0  0  0  0  0  0  0  0
  -12.8781    4.9486   22.4631 C   0  0  0  0  0  0  0  0  0  0  0  0
   -9.4386   -0.7750   20.1464 O   0  0  0  0  0  0  0  0  0  0  0  0
  -13.7595    4.1384   22.2282 C   0  0  0  0  0  0  0  0  0  0  0  0
  -15.1933    4.4040   22.2916 C   0  0  0  0  0  0  0  0  0  0  0  0
  6  7  1  0
  4 13  1  0
 13 14  1  0
 14 15  1  0
 13 16  2  0
  2 17  1  0
 15 18  1  0
 15 24  2  0
 22 29  1  0
 29 30  1  0
 33 36  1  0
 36 37  1  0
 29 38  2  0
 37 39  2  3
 39 40  1  0
 18 19  2  0
 19 20  1  0
 20 21  2  0
 21 22  1  0
 22 23  2  0
 23 18  1  0
  1  2  2  0
  2  3  1  0
  3  6  2  0
  6  5  1  0
  5  4  2  0
  4  1  1  0
 30 31  2  0
 31 32  1  0
 32 33  2  0
 33 34  1  0
 34 35  2  0
 35 30  1  0
  7  8  2  0
  8  9  1  0
 12 11  1  0
 11 10  2  0
 10  7  1  0
  9 12  2  0
 12 25  1  0
 25 26  2  0
 26 27  1  0
 27 28  2  0
 28  9  1  0
M  END
$$$$
