No_7192-complexes_sdf/6BKW-FPZ/2024-09-17-14-21-01/
     RDKit          3D

 14 15  0  0  0  0  0  0  0  0999 V2000
   -7.7129    4.2099   27.0854 C   0  0  0  0  0  0  0  0  0  0  0  0
   -7.7814    5.1722   27.8972 C   0  0  0  0  0  0  0  0  0  0  0  0
   -8.8998    3.8713   26.3707 C   0  0  0  0  0  0  0  0  0  0  0  0
   -9.9938    4.6774   26.5446 C   0  0  0  0  0  0  0  0  0  0  0  0
   -8.7789    6.1536   27.9256 C   0  0  0  0  0  0  0  0  0  0  0  0
   -9.9428    5.8398   27.2296 C   0  0  0  0  0  0  0  0  0  0  0  0
   -8.7183    2.6009   25.5951 C   0  0  0  0  0  0  0  0  0  0  0  0
   -8.3583    1.5158   26.2858 N   0  0  0  0  0  0  0  0  0  0  0  0
   -8.0420    0.3632   25.7059 C   0  0  0  0  0  0  0  0  0  0  0  0
   -7.3253   -0.5651   26.4944 C   0  0  0  0  0  0  0  0  0  0  0  0
   -7.0462   -0.0100   27.7614 C   0  0  0  0  0  0  0  0  0  0  0  0
   -7.5571    1.4364   27.5864 C   0  0  0  0  0  0  0  0  0  0  0  0
   -9.3548    2.5363   24.5609 O   0  0  0  0  0  0  0  0  0  0  0  0
   -6.6355    5.5929   28.6200 O   0  0  0  0  0  0  0  0  0  0  0  0
  3  7  1  0
  7  8  1  0
  8  9  1  0
  9 10  2  0
 10 11  1  0
  8 12  1  0
 11 12  2  0
  7 13  2  0
  2 14  1  0
  1  2  2  0
  2  5  1  0
  5  6  2  0
  6  4  1  0
  4  3  2  0
  3  1  1  0
M  END
$$$$
