No_7973-complexes_sdf/6BKW-FPZ/2024-09-17-14-21-01/
     RDKit          3D

 22 24  0  0  0  0  0  0  0  0999 V2000
   -7.7129    4.2099   27.0854 C   0  0  0  0  0  0  0  0  0  0  0  0
   -8.9133    4.4736   27.0998 C   0  0  0  0  0  0  0  0  0  0  0  0
   -9.4616    5.6470   27.6290 C   0  0  0  0  0  0  0  0  0  0  0  0
   -6.8722    5.1130   27.9248 C   0  0  0  0  0  0  0  0  0  0  0  0
   -7.3801    6.2535   28.4126 C   0  0  0  0  0  0  0  0  0  0  0  0
   -8.6734    6.5530   28.2150 C   0  0  0  0  0  0  0  0  0  0  0  0
   -9.8157    3.4887   26.3527 C   0  0  0  0  0  0  0  0  0  0  0  0
  -10.0926    2.3125   26.8650 C   0  0  0  0  0  0  0  0  0  0  0  0
  -10.6754    1.3266   26.3730 C   0  0  0  0  0  0  0  0  0  0  0  0
  -10.2378    3.7847   25.0427 C   0  0  0  0  0  0  0  0  0  0  0  0
  -10.9048    2.7691   24.3585 C   0  0  0  0  0  0  0  0  0  0  0  0
  -11.1695    1.5650   24.9890 C   0  0  0  0  0  0  0  0  0  0  0  0
   -9.8537    5.2521   24.2717 Cl  0  0  0  0  0  0  0  0  0  0  0  0
  -11.0341    0.0270   26.9877 C   0  0  0  0  0  0  0  0  0  0  0  0
   -9.9323   -0.6859   27.6017 C   0  0  0  0  0  0  0  0  0  0  0  0
   -8.6966   -0.3516   27.3909 C   0  0  0  0  0  0  0  0  0  0  0  0
   -7.6114   -1.1252   28.0112 C   0  0  0  0  0  0  0  0  0  0  0  0
   -6.2489   -0.7312   27.9122 C   0  0  0  0  0  0  0  0  0  0  0  0
   -6.0105    0.5328   27.2456 C   0  0  0  0  0  0  0  0  0  0  0  0
   -7.0327    1.2656   26.7489 C   0  0  0  0  0  0  0  0  0  0  0  0
   -8.2559    0.8997   26.8644 C   0  0  0  0  0  0  0  0  0  0  0  0
   -9.1268    1.8758   26.6505 N   0  0  0  0  0  0  0  0  0  0  0  0
  2  7  1  0
 10 13  1  0
  9 14  1  0
 14 15  1  0
 15 16  2  3
 16 17  1  0
 17 18  2  3
 18 19  1  0
 19 20  2  3
 20 21  1  0
  8 22  1  0
 21 22  2  3
  1  2  2  0
  2  3  1  0
  3  6  2  0
  6  5  1  0
  5  4  2  0
  4  1  1  0
  7  8  2  0
  8  9  1  0
  9 12  2  0
 12 11  1  0
 11 10  2  0
 10  7  1  0
M  END
$$$$
