No_7736-complexes_sdf/6BKW-FPZ/2024-09-17-14-21-01/
     RDKit          3D

 13 13  0  0  0  0  0  0  0  0999 V2000
   -7.2496    3.8871   27.4508 C   0  0  0  0  0  0  0  0  0  0  0  0
   -7.6161    2.7143   27.1523 C   0  0  0  0  0  0  0  0  0  0  0  0
   -8.6212    2.2239   26.4073 C   0  0  0  0  0  0  0  0  0  0  0  0
   -8.2540    4.9237   27.1711 C   0  0  0  0  0  0  0  0  0  0  0  0
   -8.0299    6.2902   27.5026 C   0  0  0  0  0  0  0  0  0  0  0  0
   -9.3752    4.6360   26.4536 C   0  0  0  0  0  0  0  0  0  0  0  0
   -9.6012    3.2992   26.1124 C   0  0  0  0  0  0  0  0  0  0  0  0
   -8.8605    7.3649   27.0343 C   0  0  0  0  0  0  0  0  0  0  0  0
   -6.5853    1.5495   27.5521 C   0  0  0  0  0  0  0  0  0  0  0  0
   -6.8610    0.2472   27.4672 N   0  0  0  0  0  0  0  0  0  0  0  0
   -5.4073    1.8389   27.9639 O   0  0  0  0  0  0  0  0  0  0  0  0
   -6.0179   -0.8177   27.9275 C   0  0  0  0  0  0  0  0  0  0  0  0
   -4.9138   -0.6931   28.2394 C   0  0  0  0  0  0  0  0  0  0  0  0
  4  5  1  0
  5  8  2  0
  2  9  1  0
  9 10  1  0
  9 11  2  0
 10 12  1  0
 12 13  2  0
  1  2  2  0
  2  3  1  0
  3  7  2  0
  7  6  1  0
  6  4  2  0
  4  1  1  0
M  END
$$$$
