No_7441-complexes_sdf/6BKW-FPZ/2024-09-17-14-21-01/
     RDKit          3D

 26 29  0  0  0  0  0  0  0  0999 V2000
   -7.2496    3.8871   27.4508 C   0  0  0  0  0  0  0  0  0  0  0  0
   -7.6161    2.7143   27.1523 C   0  0  0  0  0  0  0  0  0  0  0  0
   -6.9719    1.5838   27.5324 C   0  0  0  0  0  0  0  0  0  0  0  0
   -5.6316    1.7305   27.9933 C   0  0  0  0  0  0  0  0  0  0  0  0
   -8.0192    5.1128   27.1337 C   0  0  0  0  0  0  0  0  0  0  0  0
   -7.6458    6.4118   27.6522 C   0  0  0  0  0  0  0  0  0  0  0  0
   -5.1543    3.0624   28.1404 C   0  0  0  0  0  0  0  0  0  0  0  0
   -5.8790    4.1175   27.8966 C   0  0  0  0  0  0  0  0  0  0  0  0
   -9.1109    5.0347   26.2515 C   0  0  0  0  0  0  0  0  0  0  0  0
   -8.4149    7.5116   27.2581 C   0  0  0  0  0  0  0  0  0  0  0  0
   -4.7528    0.6034   28.2755 C   0  0  1  0  0  0  0  0  0  0  0  0
   -5.2033   -0.3884   28.9942 C   0  0  0  0  0  0  0  0  0  0  0  0
   -6.2006   -1.0789   28.8839 C   0  0  0  0  0  0  0  0  0  0  0  0
   -6.5893   -2.2203   29.6684 C   0  0  0  0  0  0  0  0  0  0  0  0
   -5.7803   -2.4515   30.7948 C   0  0  0  0  0  0  0  0  0  0  0  0
   -4.6527   -1.7407   31.0569 C   0  0  0  0  0  0  0  0  0  0  0  0
   -4.2806   -0.7166   30.2163 C   0  0  0  0  0  0  0  0  0  0  0  0
   -9.6777    3.8188   25.9285 C   0  0  0  0  0  0  0  0  0  0  0  0
   -8.9305    2.5800   26.3949 C   0  0  0  0  0  0  0  0  0  0  0  0
   -3.8680    0.0986   27.1104 C   0  0  0  0  0  0  0  0  0  0  0  0
   -9.4107    1.2640   26.0047 C   0  0  0  0  0  0  0  0  0  0  0  0
   -9.6788    0.9674   24.8074 C   0  0  0  0  0  0  0  0  0  0  0  0
  -10.0539   -0.3449   24.3957 C   0  0  0  0  0  0  0  0  0  0  0  0
  -10.1016   -1.3140   25.3408 C   0  0  0  0  0  0  0  0  0  0  0  0
   -9.7752   -1.0328   26.6675 C   0  0  0  0  0  0  0  0  0  0  0  0
   -9.3935    0.2477   27.0651 C   0  0  0  0  0  0  0  0  0  0  0  0
  6 10  1  0
  4 11  1  0
 11 12  1  0
 11 20  1  6
 19 21  1  0
  6  5  1  0
 12 13  2  0
 13 14  1  0
 14 15  2  0
 15 16  1  0
 16 17  2  0
 17 12  1  0
  2  3  2  0
  3  4  1  0
  4  7  2  0
  7  8  1  0
  8  1  2  0
  1  2  1  0
  2 19  1  0
 19 18  2  0
 18  9  1  0
  9  5  2  0
  5  1  1  0
 21 22  2  0
 22 23  1  0
 23 24  2  0
 24 25  1  0
 25 26  2  0
 26 21  1  0
M  END
$$$$
