No_7307-complexes_sdf/6BKW-FPZ/2024-09-17-14-21-01/
     RDKit          3D

 13 13  0  0  0  0  0  0  0  0999 V2000
   -7.2496    3.8871   27.4508 C   0  0  0  0  0  0  0  0  0  0  0  0
   -7.9379    4.9063   27.8518 C   0  0  0  0  0  0  0  0  0  0  0  0
   -8.7729    5.5444   27.0168 C   0  0  0  0  0  0  0  0  0  0  0  0
   -6.2858    3.2138   28.3467 C   0  0  0  0  0  0  0  0  0  0  0  0
   -9.3328    6.8083   27.3170 C   0  0  0  0  0  0  0  0  0  0  0  0
   -9.5830    4.6664   26.1891 C   0  0  0  0  0  0  0  0  0  0  0  0
   -9.1311    3.5041   25.7413 C   0  0  0  0  0  0  0  0  0  0  0  0
   -7.9925    2.9822   26.5430 C   0  0  0  0  0  0  0  0  0  0  0  0
   -5.6449    1.9716   27.9090 C   0  0  0  0  0  0  0  0  0  0  0  0
   -5.5113    0.9754   28.4025 C   0  0  0  0  0  0  0  0  0  0  0  0
   -4.8255   -0.1947   27.8005 C   0  0  0  0  0  0  0  0  0  0  0  0
   -4.0867    0.0636   26.8120 C   0  0  0  0  0  0  0  0  0  0  0  0
   -3.8819    1.2879   26.2430 C   0  0  0  0  0  0  0  0  0  0  0  0
  1  4  1  0
  3  5  1  0
  4  9  2  3
  9 10  1  0
 10 11  1  0
 11 12  2  3
 12 13  1  0
  1  2  2  0
  2  3  1  0
  3  6  2  0
  6  7  1  0
  7  8  2  0
  8  1  1  0
M  END
$$$$
