No_7592-complexes_sdf/6BKW-FPZ/2024-09-17-14-21-01/
     RDKit          3D

 26 28  0  0  0  0  0  0  0  0999 V2000
   -7.9040    3.9820   27.1177 C   0  0  0  0  0  0  0  0  0  0  0  0
   -9.0711    4.3164   27.0630 C   0  0  0  0  0  0  0  0  0  0  0  0
   -9.5182    5.5541   27.5777 C   0  0  0  0  0  0  0  0  0  0  0  0
   -6.9424    4.7983   27.8424 C   0  0  0  0  0  0  0  0  0  0  0  0
   -7.3526    5.9739   28.3909 C   0  0  0  0  0  0  0  0  0  0  0  0
   -8.6479    6.3742   28.2169 C   0  0  0  0  0  0  0  0  0  0  0  0
  -10.0793    3.4689   26.3368 C   0  0  0  0  0  0  0  0  0  0  0  0
   -9.6567    2.5965   25.4484 C   0  0  0  0  0  0  0  0  0  0  0  0
  -10.5086    1.8159   24.6228 C   0  0  0  0  0  0  0  0  0  0  0  0
  -11.8698    2.1070   24.6818 C   0  0  0  0  0  0  0  0  0  0  0  0
  -11.4792    3.7192   26.2197 C   0  0  0  0  0  0  0  0  0  0  0  0
  -12.3318    3.0883   25.5323 C   0  0  0  0  0  0  0  0  0  0  0  0
   -9.9717    0.7869   23.7393 C   0  0  0  0  0  0  0  0  0  0  0  0
   -9.8412    0.9958   22.4891 C   0  0  0  0  0  0  0  0  0  0  0  0
   -9.2215    0.0083   21.5883 C   0  0  0  0  0  0  0  0  0  0  0  0
   -8.6794   -1.1568   22.1589 C   0  0  0  0  0  0  0  0  0  0  0  0
   -8.7496   -1.3195   23.5128 C   0  0  0  0  0  0  0  0  0  0  0  0
   -9.3164   -0.3779   24.3384 C   0  0  0  0  0  0  0  0  0  0  0  0
  -10.2838    2.2343   21.7673 C   0  0  0  0  0  0  0  0  0  0  0  0
  -11.1831    2.2261   20.8543 N   0  0  0  0  0  0  0  0  0  0  0  0
  -12.2428    2.7320   20.9199 C   0  0  0  0  0  0  0  0  0  0  0  0
  -10.1663    3.3427   22.4834 O   0  0  0  0  0  0  0  0  0  0  0  0
  -12.4417    3.8730   21.4999 C   0  0  0  0  0  0  0  0  0  0  0  0
  -11.7204    4.3837   22.1672 C   0  0  0  0  0  0  0  0  0  0  0  0
  -11.3103    5.6608   23.2858 Cl  0  0  0  0  0  0  0  0  0  0  0  0
  -10.7506    4.7389   21.1660 C   0  0  0  0  0  0  0  0  0  0  0  0
  2  7  1  0
  9 13  1  0
 14 19  1  0
 19 20  1  0
 20 21  1  0
 19 22  2  0
 21 23  1  0
 23 24  2  3
 24 25  1  0
 24 26  1  0
  7  8  2  0
  8  9  1  0
  9 10  2  0
 10 12  1  0
 12 11  2  0
 11  7  1  0
 13 14  2  0
 14 15  1  0
 15 16  2  0
 16 17  1  0
 17 18  2  0
 18 13  1  0
  1  2  2  0
  2  3  1  0
  3  6  2  0
  6  5  1  0
  5  4  2  0
  4  1  1  0
M  END
$$$$
