No_7520-complexes_sdf/6BKW-FPZ/2024-09-17-14-21-01/
     RDKit          3D

 13 14  0  0  0  0  0  0  0  0999 V2000
   -7.7129    4.2099   27.0854 C   0  0  0  0  0  0  0  0  0  0  0  0
   -7.7814    5.1722   27.8972 C   0  0  0  0  0  0  0  0  0  0  0  0
   -8.8776    3.8408   26.3416 C   0  0  0  0  0  0  0  0  0  0  0  0
   -9.9844    4.6492   26.4743 C   0  0  0  0  0  0  0  0  0  0  0  0
   -8.8033    6.1375   27.8728 C   0  0  0  0  0  0  0  0  0  0  0  0
   -9.9554    5.8280   27.1736 C   0  0  0  0  0  0  0  0  0  0  0  0
   -8.6804    2.5787   25.5887 C   0  0  0  0  0  0  0  0  0  0  0  0
   -9.4870    2.4390   24.5140 C   0  0  0  0  0  0  0  0  0  0  0  0
   -9.4664    1.2310   23.7529 C   0  0  0  0  0  0  0  0  0  0  0  0
  -10.2033    1.1168   22.5417 C   0  0  0  0  0  0  0  0  0  0  0  0
  -11.0364    2.2125   22.1776 C   0  0  0  0  0  0  0  0  0  0  0  0
  -11.0627    3.3543   22.8962 C   0  0  0  0  0  0  0  0  0  0  0  0
  -10.2583    3.4892   24.0705 C   0  0  0  0  0  0  0  0  0  0  0  0
  3  7  1  0
  7  8  1  0
  8  9  2  0
  9 10  1  0
 10 11  2  0
 11 12  1  0
 12 13  2  0
 13  8  1  0
  1  2  2  0
  2  5  1  0
  5  6  2  0
  6  4  1  0
  4  3  2  0
  3  1  1  0
M  END
$$$$
