No_7521-complexes_sdf/6BKW-FPZ/2024-09-17-14-21-01/
     RDKit          3D

 38 41  0  0  0  0  0  0  0  0999 V2000
   -7.9040    3.9820   27.1177 C   0  0  0  0  0  0  0  0  0  0  0  0
   -7.8663    4.8694   27.9238 C   0  0  0  0  0  0  0  0  0  0  0  0
   -9.0501    3.8017   26.2617 C   0  0  0  0  0  0  0  0  0  0  0  0
  -10.0189    4.7608   26.3707 C   0  0  0  0  0  0  0  0  0  0  0  0
   -8.6770    5.9780   27.9222 C   0  0  0  0  0  0  0  0  0  0  0  0
   -9.8040    5.8752   27.0958 C   0  0  0  0  0  0  0  0  0  0  0  0
   -9.1572    2.4596   25.2621 Cl  0  0  0  0  0  0  0  0  0  0  0  0
   -6.7739    2.6337   27.1661 Cl  0  0  0  0  0  0  0  0  0  0  0  0
  -11.0193    4.7391   25.4975 O   0  0  0  0  0  0  0  0  0  0  0  0
  -12.1908    4.1390   25.9145 C   0  0  0  0  0  0  0  0  0  0  0  0
  -13.2541    4.3034   25.1001 C   0  0  0  0  0  0  0  0  0  0  0  0
  -14.5485    3.8979   25.5521 C   0  0  0  0  0  0  0  0  0  0  0  0
  -14.6719    3.3913   26.8575 C   0  0  0  0  0  0  0  0  0  0  0  0
  -13.5549    3.3067   27.6817 C   0  0  0  0  0  0  0  0  0  0  0  0
  -12.3087    3.7454   27.2516 C   0  0  0  0  0  0  0  0  0  0  0  0
  -15.9008    2.9814   27.2346 F   0  0  0  0  0  0  0  0  0  0  0  0
  -13.6975    2.7849   29.0707 C   0  0  0  0  0  0  0  0  0  0  0  0
  -13.1083    3.4949   29.9338 N   0  0  0  0  0  0  0  0  0  0  0  0
  -13.4056    3.3202   31.3366 C   0  0  0  0  0  0  0  0  0  0  0  0
  -12.8470    4.2685   32.2430 C   0  0  0  0  0  0  0  0  0  0  0  0
  -14.1798    2.2626   31.7296 C   0  0  0  0  0  0  0  0  0  0  0  0
  -13.1446    4.1065   33.6377 C   0  0  0  0  0  0  0  0  0  0  0  0
  -14.4211    2.1225   33.1426 C   0  0  0  0  0  0  0  0  0  0  0  0
  -13.8921    3.0660   34.0712 C   0  0  0  0  0  0  0  0  0  0  0  0
  -14.5027    1.8242   29.2411 O   0  0  0  0  0  0  0  0  0  0  0  0
  -12.5260    5.1120   34.5148 C   0  0  0  0  0  0  0  0  0  0  0  0
  -11.2935    4.6246   35.3393 C   0  0  0  0  0  0  0  0  0  0  0  0
  -11.3060    4.9802   36.7260 C   0  0  0  0  0  0  0  0  0  0  0  0
  -10.6459    4.3580   37.5968 C   0  0  0  0  0  0  0  0  0  0  0  0
  -10.7302    4.6648   39.0044 C   0  0  0  0  0  0  0  0  0  0  0  0
  -11.3705    5.8751   39.4038 C   0  0  0  0  0  0  0  0  0  0  0  0
  -12.1505    6.1798   37.0806 C   0  0  0  0  0  0  0  0  0  0  0  0
  -12.1223    6.5609   38.4464 C   0  0  0  0  0  0  0  0  0  0  0  0
   -9.7368    3.8460   40.1146 Cl  0  0  0  0  0  0  0  0  0  0  0  0
  -12.9001    7.7739   38.8563 C   0  0  0  0  0  0  0  0  0  0  0  0
  -12.4011    8.8575   39.0287 N   0  0  0  0  0  0  0  0  0  0  0  0
  -11.9838    9.6753   38.5250 C   0  0  0  0  0  0  0  0  0  0  0  0
  -11.1573   10.8160   38.9300 C   0  0  0  0  0  0  0  0  0  0  0  0
  3  7  1  0
  1  8  1  0
  4  9  1  0
  9 10  1  0
 13 16  1  0
 14 17  1  0
 17 18  1  0
 17 25  2  0
 22 26  1  0
 26 27  1  0
 27 28  1  0
 30 34  1  0
 33 35  1  0
 35 36  1  0
 36 37  1  0
 37 38  2  0
 18 19  1  0
 19 20  2  0
 20 22  1  0
 22 24  2  0
 24 23  1  0
 23 21  2  0
 21 19  1  0
 28 29  2  0
 29 30  1  0
 30 31  2  0
 31 33  1  0
 33 32  2  0
 32 28  1  0
  1  2  2  0
  2  5  1  0
  5  6  2  0
  6  4  1  0
  4  3  2  0
  3  1  1  0
 10 11  2  0
 11 12  1  0
 12 13  2  0
 13 14  1  0
 14 15  2  0
 15 10  1  0
M  END
$$$$
