No_7392-complexes_sdf/6BKW-FPZ/2024-09-17-14-21-01/
     RDKit          3D

 18 19  0  0  0  0  0  0  0  0999 V2000
   -7.2496    3.8871   27.4508 C   0  0  0  0  0  0  0  0  0  0  0  0
   -8.5096    4.0291   27.2770 C   0  0  0  0  0  0  0  0  0  0  0  0
   -9.3451    2.8786   26.9046 C   0  0  0  0  0  0  0  0  0  0  0  0
   -6.6065    2.5680   27.5073 C   0  0  0  0  0  0  0  0  0  0  0  0
   -7.4233    1.4858   27.2402 C   0  0  0  0  0  0  0  0  0  0  0  0
   -8.7362    1.6525   26.9989 C   0  0  0  0  0  0  0  0  0  0  0  0
   -9.1023    5.3710   27.2131 C   0  0  0  0  0  0  0  0  0  0  0  0
  -10.3176    5.4276   27.6392 F   0  0  0  0  0  0  0  0  0  0  0  0
   -8.3884    6.2664   28.0320 F   0  0  0  0  0  0  0  0  0  0  0  0
   -9.0168    5.8639   25.9493 F   0  0  0  0  0  0  0  0  0  0  0  0
   -5.3335    2.4689   27.7975 O   0  0  0  0  0  0  0  0  0  0  0  0
   -6.7795    0.1799   27.2333 C   0  0  0  0  0  0  0  0  0  0  0  0
   -5.7395   -0.1371   27.8441 C   0  0  0  0  0  0  0  0  0  0  0  0
   -5.0079    0.4076   28.5505 C   0  0  1  0  0  0  0  0  0  0  0  0
   -3.8820   -0.3178   29.2682 C   0  0  0  0  0  0  0  0  0  0  0  0
   -4.6162    1.8321   28.5215 C   0  0  0  0  0  0  0  0  0  0  0  0
   -4.0317   -1.0584   29.9967 O   0  0  0  0  0  0  0  0  0  0  0  0
   -2.6852    0.4123   29.4134 O   0  0  0  0  0  0  0  0  0  0  0  0
  2  7  1  0
  7  8  1  0
  7  9  1  0
  7 10  1  0
  4 11  1  0
  5 12  1  0
 12 13  2  0
 13 14  1  0
 14 15  1  6
 11 16  1  0
 14 16  1  0
 15 17  2  0
 15 18  1  0
  1  2  2  0
  2  3  1  0
  3  6  2  0
  6  5  1  0
  5  4  2  0
  4  1  1  0
M  END
$$$$
