No_7600-complexes_sdf/6BKW-FPZ/2024-09-17-14-21-01/
     RDKit          3D

 17 18  0  0  0  0  0  0  0  0999 V2000
   -7.7129    4.2099   27.0854 C   0  0  0  0  0  0  0  0  0  0  0  0
   -7.7814    5.1722   27.8972 C   0  0  0  0  0  0  0  0  0  0  0  0
   -8.8776    3.8408   26.3416 C   0  0  0  0  0  0  0  0  0  0  0  0
   -9.9844    4.6492   26.4743 C   0  0  0  0  0  0  0  0  0  0  0  0
   -8.8033    6.1375   27.8728 C   0  0  0  0  0  0  0  0  0  0  0  0
   -9.9554    5.8280   27.1736 C   0  0  0  0  0  0  0  0  0  0  0  0
   -8.8740    2.6184   25.5584 C   0  0  0  0  0  0  0  0  0  0  0  0
   -8.2606    1.4639   26.1340 C   0  0  0  0  0  0  0  0  0  0  0  0
   -8.0974    0.3133   25.4314 C   0  0  0  0  0  0  0  0  0  0  0  0
   -8.6927    0.2987   24.1504 C   0  0  0  0  0  0  0  0  0  0  0  0
   -9.3500    1.3892   23.5797 C   0  0  0  0  0  0  0  0  0  0  0  0
   -9.3799    2.5644   24.2974 C   0  0  0  0  0  0  0  0  0  0  0  0
   -9.8862    1.3472   22.2459 C   0  0  0  0  0  0  0  0  0  0  0  0
  -10.2914    2.4359   21.6901 N   0  0  0  0  0  0  0  0  0  0  0  0
  -11.3499    2.5306   20.8188 C   0  0  0  0  0  0  0  0  0  0  0  0
   -9.8577    0.3036   21.5478 O   0  0  0  0  0  0  0  0  0  0  0  0
   -6.6640    5.6156   28.6128 O   0  0  0  0  0  0  0  0  0  0  0  0
  3  7  1  0
 11 13  1  0
 13 14  1  0
 14 15  1  0
 13 16  2  0
  2 17  1  0
  1  2  2  0
  2  5  1  0
  5  6  2  0
  6  4  1  0
  4  3  2  0
  3  1  1  0
  7  8  2  0
  8  9  1  0
  9 10  2  0
 10 11  1  0
 11 12  2  0
 12  7  1  0
M  END
$$$$
