No_7241-complexes_sdf/6BKW-FPZ/2024-09-17-14-21-01/
     RDKit          3D

 13 14  0  0  0  0  0  0  0  0999 V2000
   -7.7129    4.2099   27.0854 C   0  0  1  0  0  0  0  0  0  0  0  0
   -8.9133    4.4736   27.0998 C   0  0  0  0  0  0  0  0  0  0  0  0
   -9.7134    3.9633   26.0300 C   0  0  0  0  0  0  0  0  0  0  0  0
   -6.8420    4.9760   28.0851 C   0  0  0  0  0  0  0  0  0  0  0  0
   -9.9322    2.5915   25.9957 C   0  0  2  0  0  0  0  0  0  0  0  0
   -8.6455    1.8699   26.1981 C   0  0  0  0  0  0  0  0  0  0  0  0
   -7.7519    2.5333   27.2430 C   0  0  0  0  0  0  0  0  0  0  0  0
  -11.0374    1.8961   25.5675 C   0  0  0  0  0  0  0  0  0  0  0  0
  -11.8746    1.4689   26.5168 C   0  0  0  0  0  0  0  0  0  0  0  0
  -12.8065    0.8018   26.4460 C   0  0  0  0  0  0  0  0  0  0  0  0
  -11.3398    1.7033   24.2248 C   0  0  0  0  0  0  0  0  0  0  0  0
  -12.5370    0.9250   23.9775 C   0  0  0  0  0  0  0  0  0  0  0  0
  -13.2872    0.5168   25.0633 C   0  0  0  0  0  0  0  0  0  0  0  0
  1  2  1  0
  2  3  1  0
  1  4  1  1
  3  5  1  0
  5  6  1  0
  1  7  1  0
  6  7  1  0
  5  8  1  6
  8  9  2  0
  9 10  1  0
 10 13  2  0
 13 12  1  0
 12 11  2  0
 11  8  1  0
M  END
$$$$
