No_750-complexes_sdf/6BKW-FPZ/2024-09-17-14-21-01/
     RDKit          3D

 24 27  0  0  0  0  0  0  0  0999 V2000
   -7.2496    3.8871   27.4508 C   0  0  0  0  0  0  0  0  0  0  0  0
   -8.5096    4.0291   27.2770 C   0  0  0  0  0  0  0  0  0  0  0  0
   -9.3451    2.8786   26.9046 C   0  0  0  0  0  0  0  0  0  0  0  0
  -10.6709    3.0505   26.6789 C   0  0  0  0  0  0  0  0  0  0  0  0
   -6.5987    2.6095   27.5132 C   0  0  0  0  0  0  0  0  0  0  0  0
   -7.3529    1.5121   27.2159 C   0  0  0  0  0  0  0  0  0  0  0  0
   -8.6970    1.6824   26.9913 C   0  0  0  0  0  0  0  0  0  0  0  0
  -11.2109    3.2833   25.5889 C   0  0  0  0  0  0  0  0  0  0  0  0
  -10.3394    3.8230   24.5117 C   0  0  0  0  0  0  0  0  0  0  0  0
  -10.7433    4.1920   23.2307 C   0  0  0  0  0  0  0  0  0  0  0  0
   -5.2972    2.5342   27.7558 F   0  0  0  0  0  0  0  0  0  0  0  0
  -12.0711    4.1087   22.9023 C   0  0  0  0  0  0  0  0  0  0  0  0
  -12.9669    3.6545   23.8887 C   0  0  0  0  0  0  0  0  0  0  0  0
  -12.5677    3.3708   25.1255 C   0  0  0  0  0  0  0  0  0  0  0  0
  -11.5693    2.9654   27.9132 C   0  0  0  0  0  0  0  0  0  0  0  0
  -11.8367    4.0141   28.7620 C   0  0  0  0  0  0  0  0  0  0  0  0
  -12.0276    1.6623   28.2375 C   0  0  0  0  0  0  0  0  0  0  0  0
  -11.5477    0.4988   27.7735 C   0  0  0  0  0  0  0  0  0  0  0  0
  -12.0629   -0.7480   28.2128 C   0  0  0  0  0  0  0  0  0  0  0  0
  -11.5150   -1.9695   27.7800 C   0  0  0  0  0  0  0  0  0  0  0  0
  -10.5255   -1.8809   26.8531 C   0  0  0  0  0  0  0  0  0  0  0  0
  -10.1031   -0.7584   26.3094 C   0  0  0  0  0  0  0  0  0  0  0  0
  -10.5523    0.5977   26.8548 C   0  0  0  0  0  0  0  0  0  0  0  0
   -9.6109    1.4777   27.1115 N   0  0  0  0  0  0  0  0  0  0  0  0
  4  8  1  0
  5 11  1  0
  4 15  1  0
 15 16  2  0
 15 17  1  0
  7 24  1  0
 23 24  1  0
 17 18  1  0
  4  3  1  0
 18 19  2  0
 19 20  1  0
 20 21  2  0
 21 22  1  0
 22 23  2  0
 23 18  1  0
  1  2  2  0
  2  3  1  0
  3  7  2  0
  7  6  1  0
  6  5  2  0
  5  1  1  0
  8  9  2  0
  9 10  1  0
 10 12  2  0
 12 13  1  0
 13 14  2  0
 14  8  1  0
M  END
$$$$
