No_7313-complexes_sdf/6BKW-FPZ/2024-09-17-14-21-01/
     RDKit          3D

 40 45  0  0  0  0  0  0  0  0999 V2000
   -7.9040    3.9820   27.1177 C   0  0  0  0  0  0  0  0  0  0  0  0
   -8.2057    2.8231   26.8733 C   0  0  0  0  0  0  0  0  0  0  0  0
   -8.7695    5.0740   26.7916 C   0  0  0  0  0  0  0  0  0  0  0  0
   -8.4337    6.4678   27.0913 C   0  0  0  0  0  0  0  0  0  0  0  0
   -9.3742    2.4311   26.2346 C   0  0  0  0  0  0  0  0  0  0  0  0
  -10.2395    3.4267   25.8887 C   0  0  0  0  0  0  0  0  0  0  0  0
   -9.9567    4.7548   26.1374 C   0  0  0  0  0  0  0  0  0  0  0  0
   -7.8881    6.8714   28.1602 N   0  0  0  0  0  0  0  0  0  0  0  0
   -8.7714    7.4102   26.1908 N   0  0  0  0  0  0  0  0  0  0  0  0
   -7.2517    1.6778   27.2784 C   0  0  0  0  0  0  0  0  0  0  0  0
   -6.0185    2.0100   27.8735 C   0  0  0  0  0  0  0  0  0  0  0  0
   -5.1216    0.9407   28.2150 C   0  0  0  0  0  0  0  0  0  0  0  0
   -5.4918   -0.3437   28.0592 C   0  0  0  0  0  0  0  0  0  0  0  0
   -7.3549    0.2783   27.2152 C   0  0  0  0  0  0  0  0  0  0  0  0
   -6.6709   -0.6343   27.5925 C   0  0  0  0  0  0  0  0  0  0  0  0
   -4.5055   -1.3633   28.6209 C   0  0  1  0  0  0  0  0  0  0  0  0
   -4.6130   -1.9277   29.6953 C   0  0  0  0  0  0  0  0  0  0  0  0
   -5.5163   -1.6115   30.6446 C   0  0  0  0  0  0  0  0  0  0  0  0
   -5.5630   -2.1746   32.0130 C   0  0  0  0  0  0  0  0  0  0  0  0
   -6.3754   -1.6336   33.0127 C   0  0  0  0  0  0  0  0  0  0  0  0
   -6.4765   -2.2007   34.3222 C   0  0  0  0  0  0  0  0  0  0  0  0
   -7.1639   -1.6163   35.2952 C   0  0  0  0  0  0  0  0  0  0  0  0
   -7.1189   -2.2377   36.5710 C   0  0  0  0  0  0  0  0  0  0  0  0
   -6.3557   -3.4049   36.7649 C   0  0  0  0  0  0  0  0  0  0  0  0
   -5.7284   -3.3436   34.8632 C   0  0  0  0  0  0  0  0  0  0  0  0
   -5.6867   -3.9001   35.9116 C   0  0  0  0  0  0  0  0  0  0  0  0
   -4.0426   -2.0855   27.4145 C   0  0  0  0  0  0  0  0  0  0  0  0
   -3.5111   -2.8196   30.1497 C   0  0  0  0  0  0  0  0  0  0  0  0
   -3.5077   -3.3799   31.4852 C   0  0  0  0  0  0  0  0  0  0  0  0
   -4.4308   -2.9958   32.3584 C   0  0  0  0  0  0  0  0  0  0  0  0
   -2.6689   -1.7067   27.1542 C   0  0  0  0  0  0  0  0  0  0  0  0
   -2.2619   -2.1336   25.8218 C   0  0  0  0  0  0  0  0  0  0  0  0
   -3.0585   -2.9000   25.0262 C   0  0  0  0  0  0  0  0  0  0  0  0
   -4.6678   -2.9802   26.6850 C   0  0  0  0  0  0  0  0  0  0  0  0
   -4.2545   -3.2880   25.4436 C   0  0  0  0  0  0  0  0  0  0  0  0
   -4.7983   -3.6006   33.4649 C   0  0  0  0  0  0  0  0  0  0  0  0
   -5.0491   -4.1194   24.5473 C   0  0  0  0  0  0  0  0  0  0  0  0
   -4.9198   -5.2450   24.4129 C   0  0  0  0  0  0  0  0  0  0  0  0
   -6.1289   -3.3627   23.8261 C   0  0  0  0  0  0  0  0  0  0  0  0
   -6.4405   -2.0401   24.0310 C   0  0  0  0  0  0  0  0  0  0  0  0
  3  4  1  0
  4  8  2  0
  4  9  1  0
  2 10  1  0
 16 13  1  6
 16 17  1  0
 16 27  1  0
 35 37  1  0
 37 38  2  0
 37 39  1  0
 39 40  1  0
  1  2  2  0
  2  5  1  0
  5  6  2  0
  6  7  1  0
  7  3  2  0
  3  1  1  0
 17 18  2  0
 18 19  1  0
 30 29  1  0
 29 28  2  0
 28 17  1  0
 21 22  2  0
 22 23  1  0
 23 24  2  0
 24 26  1  0
 26 25  2  0
 19 20  2  0
 20 21  1  0
 21 25  1  0
 25 36  1  0
 36 30  2  0
 30 19  1  0
 10 11  2  0
 11 12  1  0
 12 13  2  0
 13 15  1  0
 15 14  2  0
 14 10  1  0
 27 31  2  0
 31 32  1  0
 32 33  2  0
 33 35  1  0
 35 34  2  0
 34 27  1  0
M  END
$$$$
