No_7351-complexes_sdf/6BKW-FPZ/2024-09-17-14-21-01/
     RDKit          3D

 18 19  0  0  0  0  0  0  0  0999 V2000
   -7.9040    3.9820   27.1177 C   0  0  0  0  0  0  0  0  0  0  0  0
   -9.0711    4.3164   27.0630 C   0  0  0  0  0  0  0  0  0  0  0  0
   -9.5294    5.4517   27.7215 C   0  0  0  0  0  0  0  0  0  0  0  0
   -9.9845    3.5634   26.2189 C   0  0  0  0  0  0  0  0  0  0  0  0
  -10.7684    4.0785   25.5182 C   0  0  1  0  0  0  0  0  0  0  0  0
   -7.4478    2.6253   26.8734 C   0  0  0  0  0  0  0  0  0  0  0  0
   -8.3462    1.8107   26.1906 C   0  0  0  0  0  0  0  0  0  0  0  0
   -9.9742    2.2263   26.2716 C   0  0  0  0  0  0  0  0  0  0  0  0
   -8.0197    0.3636   26.0869 C   0  0  0  0  0  0  0  0  0  0  0  0
   -7.0675    0.0013   26.9871 C   0  0  0  0  0  0  0  0  0  0  0  0
   -6.9173   -1.3436   27.3879 C   0  0  0  0  0  0  0  0  0  0  0  0
   -7.8677   -2.1250   26.9838 C   0  0  0  0  0  0  0  0  0  0  0  0
   -8.8113   -0.6488   25.6811 C   0  0  0  0  0  0  0  0  0  0  0  0
   -8.8319   -1.8911   26.1049 C   0  0  0  0  0  0  0  0  0  0  0  0
  -10.7455    4.5777   24.1859 C   0  0  0  0  0  0  0  0  0  0  0  0
  -12.1964    4.0231   25.9120 C   0  0  0  0  0  0  0  0  0  0  0  0
  -11.2195    4.3520   23.0159 C   0  0  0  0  0  0  0  0  0  0  0  0
  -10.7239    4.8337   21.8442 C   0  0  0  0  0  0  0  0  0  0  0  0
  2  3  1  0
  4  5  1  0
  7  9  1  0
  5 15  1  0
  5 16  1  6
 15 17  2  3
 17 18  1  0
  1  2  2  0
  2  4  1  0
  4  8  2  0
  8  7  1  0
  7  6  2  0
  6  1  1  0
  9 10  2  0
 10 11  1  0
 11 12  2  0
 12 14  1  0
 14 13  2  0
 13  9  1  0
M  END
$$$$
