No_7861-complexes_sdf/6BKW-FPZ/2024-09-17-14-21-01/
     RDKit          3D

 18 19  0  0  0  0  0  0  0  0999 V2000
   -7.9040    3.9820   27.1177 C   0  0  0  0  0  0  0  0  0  0  0  0
   -7.8663    4.8694   27.9238 C   0  0  0  0  0  0  0  0  0  0  0  0
   -9.0501    3.8017   26.2617 C   0  0  0  0  0  0  0  0  0  0  0  0
   -9.1826    2.7026   25.3575 C   0  0  0  0  0  0  0  0  0  0  0  0
   -8.6940    6.0131   27.8614 C   0  0  0  0  0  0  0  0  0  0  0  0
   -9.9755    4.8547   26.2361 C   0  0  0  0  0  0  0  0  0  0  0  0
   -9.7463    5.9398   27.0364 C   0  0  0  0  0  0  0  0  0  0  0  0
  -10.1187    2.7535   24.3403 C   0  0  0  0  0  0  0  0  0  0  0  0
  -10.3304    1.6199   23.5634 C   0  0  0  0  0  0  0  0  0  0  0  0
   -9.4197    0.5137   23.6872 C   0  0  0  0  0  0  0  0  0  0  0  0
   -8.4643    1.5389   25.4512 C   0  0  0  0  0  0  0  0  0  0  0  0
   -8.5231    0.4903   24.6741 C   0  0  0  0  0  0  0  0  0  0  0  0
   -7.6661   -0.6867   24.8301 C   0  0  0  0  0  0  0  0  0  0  0  0
   -8.0220   -1.5191   25.3534 O   0  0  0  0  0  0  0  0  0  0  0  0
   -6.4328   -0.5728   24.2464 O   0  0  0  0  0  0  0  0  0  0  0  0
  -11.2536    1.7121   22.4335 C   0  0  0  0  0  0  0  0  0  0  0  0
  -12.1137    1.0702   22.2172 C   0  0  0  0  0  0  0  0  0  0  0  0
  -12.9898    0.8758   21.7013 C   0  0  0  0  0  0  0  0  0  0  0  0
  3  4  1  0
 12 13  1  0
 13 14  2  0
 13 15  1  0
  9 16  1  0
 16 17  2  3
 17 18  1  0
  4  8  2  0
  8  9  1  0
  9 10  2  0
 10 12  1  0
 12 11  2  0
 11  4  1  0
  1  2  2  0
  2  5  1  0
  5  7  2  0
  7  6  1  0
  6  3  2  0
  3  1  1  0
M  END
$$$$
