No_7685-complexes_sdf/6BKW-FPZ/2024-09-17-14-21-01/
     RDKit          3D

 19 19  0  0  0  0  0  0  0  0999 V2000
   -7.9040    3.9820   27.1177 C   0  0  0  0  0  0  0  0  0  0  0  0
   -8.2057    2.8231   26.8733 C   0  0  0  0  0  0  0  0  0  0  0  0
   -8.7695    5.0740   26.7916 C   0  0  0  0  0  0  0  0  0  0  0  0
   -8.4337    6.4678   27.0913 C   0  0  0  0  0  0  0  0  0  0  0  0
   -9.3742    2.4311   26.2346 C   0  0  0  0  0  0  0  0  0  0  0  0
  -10.2395    3.4267   25.8887 C   0  0  0  0  0  0  0  0  0  0  0  0
   -9.9567    4.7548   26.1374 C   0  0  0  0  0  0  0  0  0  0  0  0
   -7.9449    7.5014   26.9590 N   0  0  0  0  0  0  0  0  0  0  0  0
   -7.2426    1.6814   27.2966 C   0  0  0  0  0  0  0  0  0  0  0  0
   -7.6440    0.6017   27.5092 F   0  0  0  0  0  0  0  0  0  0  0  0
   -6.5011    2.2021   28.3930 F   0  0  0  0  0  0  0  0  0  0  0  0
   -6.2908    1.5104   26.2842 F   0  0  0  0  0  0  0  0  0  0  0  0
  -11.4531    3.0950   25.1241 C   0  0  2  0  0  0  0  0  0  0  0  0
  -12.5689    2.8664   25.7459 C   0  0  0  0  0  0  0  0  0  0  0  0
  -13.4923    2.7991   24.9781 F   0  0  0  0  0  0  0  0  0  0  0  0
  -12.4760    1.6360   26.3834 F   0  0  0  0  0  0  0  0  0  0  0  0
  -12.8865    3.7260   26.7498 F   0  0  0  0  0  0  0  0  0  0  0  0
  -11.0195    2.0601   23.5997 Br  0  0  0  0  0  0  0  0  0  0  0  0
  -11.6456    4.3715   24.3833 F   0  0  0  0  0  0  0  0  0  0  0  0
  3  4  1  0
  4  8  3  0
  2  9  1  0
  9 10  1  0
  9 11  1  0
  9 12  1  0
  6 13  1  0
 13 14  1  0
 14 15  1  0
 14 16  1  0
 14 17  1  0
 13 18  1  0
 13 19  1  6
  1  2  2  0
  2  5  1  0
  5  6  2  0
  6  7  1  0
  7  3  2  0
  3  1  1  0
M  END
$$$$
