No_7672-complexes_sdf/6BKW-FPZ/2024-09-17-14-21-01/
     RDKit          3D

 13 14  0  0  0  0  0  0  0  0999 V2000
   -7.7129    4.2099   27.0854 C   0  0  0  0  0  0  0  0  0  0  0  0
   -8.9133    4.4736   27.0998 C   0  0  0  0  0  0  0  0  0  0  0  0
   -9.4643    5.5426   27.7628 C   0  0  0  0  0  0  0  0  0  0  0  0
   -9.8091    3.6358   26.2841 C   0  0  0  0  0  0  0  0  0  0  0  0
  -10.3717    2.5594   26.9241 C   0  0  0  0  0  0  0  0  0  0  0  0
  -10.3040    2.3353   28.2164 C   0  0  0  0  0  0  0  0  0  0  0  0
   -6.8256    4.9273   28.0591 C   0  0  0  0  0  0  0  0  0  0  0  0
   -8.6286    6.4498   28.4781 C   0  0  0  0  0  0  0  0  0  0  0  0
   -7.2720    6.0303   28.5446 C   0  0  0  0  0  0  0  0  0  0  0  0
  -11.0086    1.4846   26.1192 C   0  0  0  0  0  0  0  0  0  0  0  0
  -11.4887    0.5056   26.5343 C   0  0  0  0  0  0  0  0  0  0  0  0
  -10.9930    1.2059   28.8596 C   0  0  0  0  0  0  0  0  0  0  0  0
  -11.5691    0.2774   28.0242 C   0  0  0  0  0  0  0  0  0  0  0  0
  2  4  1  0
  4  5  1  0
  5  6  2  0
  6 12  1  0
 12 13  2  0
 13 11  1  0
 11 10  2  0
 10  5  1  0
  1  2  2  0
  2  3  1  0
  3  8  2  0
  8  9  1  0
  9  7  2  0
  7  1  1  0
M  END
$$$$
