No_7494-complexes_sdf/6BKW-FPZ/2024-09-17-14-21-01/
     RDKit          3D

 16 17  0  0  0  0  0  0  0  0999 V2000
   -7.7129    4.2099   27.0854 C   0  0  0  0  0  0  0  0  0  0  0  0
   -7.7814    5.1722   27.8972 C   0  0  0  0  0  0  0  0  0  0  0  0
   -8.7889    3.2468   27.2220 C   0  0  0  0  0  0  0  0  0  0  0  0
   -8.7402    2.0341   26.3990 C   0  0  0  0  0  0  0  0  0  0  0  0
   -8.9680    5.6562   28.5183 C   0  0  0  0  0  0  0  0  0  0  0  0
   -9.9490    3.5176   27.8853 C   0  0  0  0  0  0  0  0  0  0  0  0
  -10.0212    4.7882   28.5980 C   0  0  0  0  0  0  0  0  0  0  0  0
   -8.0603    0.9091   26.8894 C   0  0  0  0  0  0  0  0  0  0  0  0
   -7.2921    0.9387   27.9824 C   0  0  0  0  0  0  0  0  0  0  0  0
   -6.4698   -0.1911   28.3726 C   0  0  0  0  0  0  0  0  0  0  0  0
   -6.5965   -1.3555   27.6717 C   0  0  0  0  0  0  0  0  0  0  0  0
   -7.9876   -0.2881   26.1209 C   0  0  0  0  0  0  0  0  0  0  0  0
   -7.3191   -1.3852   26.5147 C   0  0  0  0  0  0  0  0  0  0  0  0
   -9.3432    2.0669   25.1395 C   0  0  0  0  0  0  0  0  0  0  0  0
   -9.6234    1.1450   24.4402 N   0  0  0  0  0  0  0  0  0  0  0  0
  -10.2848    1.1382   23.3257 C   0  0  0  0  0  0  0  0  0  0  0  0
  3  4  1  0
  4  8  1  0
  4 14  1  0
 14 15  1  0
 15 16  1  0
  1  2  2  0
  2  5  1  0
  5  7  2  0
  7  6  1  0
  6  3  2  0
  3  1  1  0
  8  9  2  0
  9 10  1  0
 10 11  2  0
 11 13  1  0
 13 12  2  0
 12  8  1  0
M  END
$$$$
