No_7476-complexes_sdf/6BKW-FPZ/2024-09-17-14-21-01/
     RDKit          3D

 16 17  0  0  0  0  0  0  0  0999 V2000
   -7.9040    3.9820   27.1177 C   0  0  0  0  0  0  0  0  0  0  0  0
   -7.8663    4.8694   27.9238 C   0  0  0  0  0  0  0  0  0  0  0  0
   -9.0491    3.8523   26.2542 C   0  0  0  0  0  0  0  0  0  0  0  0
   -8.7661    5.9491   27.9690 C   0  0  0  0  0  0  0  0  0  0  0  0
   -9.9295    4.8502   26.2323 C   0  0  0  0  0  0  0  0  0  0  0  0
   -9.8077    5.9288   27.0933 C   0  0  0  0  0  0  0  0  0  0  0  0
   -7.0146    2.9513   27.1368 F   0  0  0  0  0  0  0  0  0  0  0  0
   -9.0710    2.8499   25.3499 F   0  0  0  0  0  0  0  0  0  0  0  0
  -11.1747    4.7907   25.0721 Cl  0  0  0  0  0  0  0  0  0  0  0  0
   -6.7851    5.0828   28.8151 O   0  0  0  0  0  0  0  0  0  0  0  0
   -6.3657    6.3321   29.1042 C   0  0  0  0  0  0  0  0  0  0  0  0
   -6.4623    7.1890   28.1783 O   0  0  0  0  0  0  0  0  0  0  0  0
   -5.2831    6.3542   29.8300 O   0  0  0  0  0  0  0  0  0  0  0  0
   -7.0145    7.1064   26.9976 C   0  0  2  0  0  0  0  0  0  0  0  0
   -7.1920    8.4749   26.3307 C   0  0  0  0  0  0  0  0  0  0  0  0
   -8.1487    6.5657   26.8449 O   0  0  0  0  0  0  0  0  0  0  0  0
  1  7  1  0
  3  8  1  0
  5  9  1  0
  2 10  1  0
 10 11  1  0
 11 12  1  0
 11 13  2  0
 12 14  1  0
 14 15  1  1
  4 16  1  0
 14 16  1  0
  1  2  2  0
  2  4  1  0
  4  6  2  0
  6  5  1  0
  5  3  2  0
  3  1  1  0
M  END
$$$$
