No_7084-complexes_sdf/6BKW-FPZ/2024-09-17-14-21-01/
     RDKit          3D

 33 39  0  0  0  0  0  0  0  0999 V2000
   -7.9040    3.9820   27.1177 C   0  0  0  0  0  0  0  0  0  0  0  0
   -8.2057    2.8231   26.8733 C   0  0  0  0  0  0  0  0  0  0  0  0
   -9.2962    2.4021   26.1155 C   0  0  0  0  0  0  0  0  0  0  0  0
   -8.8403    4.9695   26.9329 C   0  0  0  0  0  0  0  0  0  0  0  0
   -9.9203    4.6961   26.0942 C   0  0  0  0  0  0  0  0  0  0  0  0
  -10.1704    3.4287   25.7979 C   0  0  0  0  0  0  0  0  0  0  0  0
   -8.4818    6.4135   27.2143 C   0  0  0  0  0  0  0  0  0  0  0  0
   -9.1795    7.4028   26.7431 N   0  0  0  0  0  0  0  0  0  0  0  0
   -7.4280    6.5608   27.9553 O   0  0  0  0  0  0  0  0  0  0  0  0
   -7.2281    1.6458   27.2428 C   0  0  0  0  0  0  0  0  0  0  0  0
   -7.4968    0.3914   26.9799 N   0  0  0  0  0  0  0  0  0  0  0  0
   -5.9415    1.8553   27.7023 N   0  0  0  0  0  0  0  0  0  0  0  0
   -6.3856   -0.2414   27.4770 C   0  0  0  0  0  0  0  0  0  0  0  0
   -5.4728    0.6403   27.9150 C   0  0  0  0  0  0  0  0  0  0  0  0
   -4.1203    0.4525   28.5280 C   0  0  0  0  0  0  0  0  0  0  0  0
   -3.6005   -0.6252   28.8286 C   0  0  0  0  0  0  0  0  0  0  0  0
   -2.3490   -0.6952   29.4931 C   0  0  0  0  0  0  0  0  0  0  0  0
   -1.8246   -1.9160   29.7208 C   0  0  0  0  0  0  0  0  0  0  0  0
   -2.4586   -3.0648   29.5164 C   0  0  0  0  0  0  0  0  0  0  0  0
   -3.6830   -3.0038   28.9301 C   0  0  0  0  0  0  0  0  0  0  0  0
   -4.2580   -1.8159   28.6213 C   0  0  0  0  0  0  0  0  0  0  0  0
   -6.2726   -1.6706   27.5272 C   0  0  0  0  0  0  0  0  0  0  0  0
   -5.5117   -1.8184   28.0267 C   0  0  0  0  0  0  0  0  0  0  0  0
   -5.8430   -3.0711   28.9597 C   0  0  0  0  0  0  0  0  0  0  0  0
   -4.7650   -3.7827   29.2419 C   0  0  2  0  0  0  0  0  0  0  0  0
   -4.7432   -4.4447   30.5891 C   0  0  0  0  0  0  0  0  0  0  0  0
   -4.5904   -4.8551   28.0377 C   0  0  0  0  0  0  0  0  0  0  0  0
   -5.0085   -5.7238   27.5590 C   0  0  0  0  0  0  0  0  0  0  0  0
   -4.6285   -6.3980   26.4667 C   0  0  0  0  0  0  0  0  0  0  0  0
   -3.4784   -5.9358   25.8514 C   0  0  0  0  0  0  0  0  0  0  0  0
   -2.7814   -4.8622   26.2682 C   0  0  0  0  0  0  0  0  0  0  0  0
   -3.2661   -4.2529   27.3984 C   0  0  0  0  0  0  0  0  0  0  0  0
   -2.3028   -3.4101   27.8265 N   0  0  0  0  0  0  0  0  0  0  0  0
  4  7  1  0
  7  8  1  0
  7  9  2  0
  2 10  1  0
 10 11  2  0
 10 12  1  0
 11 13  1  0
 12 14  1  0
 13 14  1  0
 14 15  1  0
 15 16  1  0
 13 22  1  0
 21 23  1  0
 22 23  1  0
 23 24  1  0
 20 25  1  0
 24 25  1  0
 25 26  1  1
 25 27  1  0
 19 33  1  0
 32 33  1  0
 27 28  2  0
 28 29  1  0
 29 30  2  0
 30 31  1  0
 31 32  2  0
 32 27  1  0
  1  2  2  0
  2  3  1  0
  3  6  2  0
  6  5  1  0
  5  4  2  0
  4  1  1  0
 16 17  2  0
 17 18  1  0
 18 19  2  0
 19 20  1  0
 20 21  2  0
 21 16  1  0
M  END
$$$$
