No_7765-complexes_sdf/6BKW-FPZ/2024-09-17-14-21-01/
     RDKit          3D

 22 24  0  0  0  0  0  0  0  0999 V2000
   -7.2496    3.8871   27.4508 C   0  0  0  0  0  0  0  0  0  0  0  0
   -7.9379    4.9063   27.8518 C   0  0  0  0  0  0  0  0  0  0  0  0
   -9.3460    4.8223   27.8695 C   0  0  0  0  0  0  0  0  0  0  0  0
   -7.8628    2.6163   27.1065 C   0  0  0  0  0  0  0  0  0  0  0  0
   -9.2787    2.5744   27.1970 C   0  0  0  0  0  0  0  0  0  0  0  0
  -10.0108    3.6770   27.6340 C   0  0  0  0  0  0  0  0  0  0  0  0
  -11.4855    3.5731   27.7420 C   0  0  0  0  0  0  0  0  0  0  0  0
  -11.9299    2.8562   28.8221 C   0  0  0  0  0  0  0  0  0  0  0  0
  -13.2938    2.7194   29.1618 C   0  0  0  0  0  0  0  0  0  0  0  0
  -14.1926    3.3847   28.3454 C   0  0  0  0  0  0  0  0  0  0  0  0
  -13.7349    4.1610   27.2718 C   0  0  0  0  0  0  0  0  0  0  0  0
  -12.3654    4.3305   26.9983 C   0  0  0  0  0  0  0  0  0  0  0  0
   -7.1200    1.4588   26.7838 C   0  0  0  0  0  0  0  0  0  0  0  0
   -7.6353    0.6130   25.9043 N   0  0  0  0  0  0  0  0  0  0  0  0
   -8.4648    0.8674   25.0085 C   0  0  0  0  0  0  0  0  0  0  0  0
   -9.4287    1.1490   24.8675 C   0  0  0  0  0  0  0  0  0  0  0  0
  -10.3455    1.2073   23.7565 C   0  0  0  0  0  0  0  0  0  0  0  0
  -11.6795    1.5935   23.8483 C   0  0  0  0  0  0  0  0  0  0  0  0
   -9.9990    2.2023   26.0420 C   0  0  0  0  0  0  0  0  0  0  0  0
  -12.4912    1.4341   22.7711 C   0  0  0  0  0  0  0  0  0  0  0  0
   -7.1133    6.3342   28.4340 Cl  0  0  0  0  0  0  0  0  0  0  0  0
  -11.9807    1.0429   21.5690 C   0  0  0  0  0  0  0  0  0  0  0  0
  6  7  1  0
  4 13  1  0
 13 14  1  0
 14 15  1  0
 15 16  2  0
 16 17  1  0
 17 18  2  3
  5 19  1  0
 16 19  1  0
 18 20  1  0
  2 21  1  0
 20 22  2  0
  1  2  2  0
  2  3  1  0
  3  6  2  0
  6  5  1  0
  5  4  2  0
  4  1  1  0
  7  8  2  0
  8  9  1  0
  9 10  2  0
 10 11  1  0
 11 12  2  0
 12  7  1  0
M  END
$$$$
