No_7556-complexes_sdf/6BKW-FPZ/2024-09-17-14-21-01/
     RDKit          3D

 20 23  0  0  0  0  0  0  0  0999 V2000
   -7.2496    3.8871   27.4508 C   0  0  0  0  0  0  0  0  0  0  0  0
   -7.6161    2.7143   27.1523 C   0  0  0  0  0  0  0  0  0  0  0  0
   -8.8827    2.2318   27.1220 C   0  0  0  0  0  0  0  0  0  0  0  0
   -8.2837    4.9116   27.6108 C   0  0  0  0  0  0  0  0  0  0  0  0
   -9.6088    4.5175   27.5560 C   0  0  0  0  0  0  0  0  0  0  0  0
   -9.9243    3.2149   27.3938 C   0  0  0  0  0  0  0  0  0  0  0  0
   -7.9067    6.1291   27.9030 F   0  0  0  0  0  0  0  0  0  0  0  0
   -9.4742    0.9140   26.9351 C   0  0  0  0  0  0  0  0  0  0  0  0
   -8.6543   -0.0563   26.9274 C   0  0  0  0  0  0  0  0  0  0  0  0
   -7.1956    0.0964   27.1484 C   0  0  0  0  0  0  0  0  0  0  0  0
   -6.7086    1.5060   27.1812 C   0  0  0  0  0  0  0  0  0  0  0  0
   -6.0359   -1.0922   27.0230 Cl  0  0  0  0  0  0  0  0  0  0  0  0
  -11.3736    2.8755   27.4586 C   0  0  0  0  0  0  0  0  0  0  0  0
  -12.1936    3.6769   27.9008 C   0  0  0  0  0  0  0  0  0  0  0  0
  -13.4661    3.6098   28.1670 C   0  0  0  0  0  0  0  0  0  0  0  0
  -13.9879    2.3058   28.0721 C   0  0  0  0  0  0  0  0  0  0  0  0
  -13.1150    1.2683   27.6846 C   0  0  0  0  0  0  0  0  0  0  0  0
  -11.7959    1.5164   27.4872 C   0  0  0  0  0  0  0  0  0  0  0  0
  -10.8134    0.5153   27.1911 C   0  0  0  0  0  0  0  0  0  0  0  0
  -11.1964   -0.6785   27.1606 O   0  0  0  0  0  0  0  0  0  0  0  0
  4  7  1  0
 10 12  1  0
  6 13  1  0
  8 19  1  0
 18 19  1  0
 19 20  2  0
 13 14  2  0
 14 15  1  0
 15 16  2  0
 16 17  1  0
 17 18  2  0
 18 13  1  0
  1  2  2  0
  3  6  2  0
  6  5  1  0
  5  4  2  0
  4  1  1  0
  2  3  1  0
  3  8  1  0
  8  9  2  0
  9 10  1  0
 10 11  2  0
 11  2  1  0
M  END
$$$$
