No_7395-complexes_sdf/6BKW-FPZ/2024-09-17-14-21-01/
     RDKit          3D

 13 14  0  0  0  0  0  0  0  0999 V2000
   -7.7129    4.2099   27.0854 C   0  0  0  0  0  0  0  0  0  0  0  0
   -8.2112    3.0637   26.9225 C   0  0  0  0  0  0  0  0  0  0  0  0
   -8.4224    5.2106   27.8516 C   0  0  0  0  0  0  0  0  0  0  0  0
   -9.5628    2.7160   27.4089 C   0  0  0  0  0  0  0  0  0  0  0  0
  -10.2428    3.7496   28.1155 C   0  0  0  0  0  0  0  0  0  0  0  0
   -9.6677    4.9738   28.3232 C   0  0  0  0  0  0  0  0  0  0  0  0
  -11.6117    3.4528   28.6312 C   0  0  0  0  0  0  0  0  0  0  0  0
  -12.5715    3.0799   27.8562 C   0  0  0  0  0  0  0  0  0  0  0  0
  -12.5491    2.8130   26.6479 C   0  0  0  0  0  0  0  0  0  0  0  0
  -13.7316    2.4860   25.8558 C   0  0  0  0  0  0  0  0  0  0  0  0
  -13.9406    3.0152   28.5037 C   0  0  0  0  0  0  0  0  0  0  0  0
  -15.0800    2.7056   27.7740 C   0  0  0  0  0  0  0  0  0  0  0  0
  -14.9388    2.4572   26.4528 C   0  0  0  0  0  0  0  0  0  0  0  0
  5  7  1  0
  7  8  1  0
  1  2  2  0
  2  4  1  0
  4  5  2  0
  5  6  1  0
  6  3  2  0
  3  1  1  0
  8  9  2  0
  9 10  1  0
 10 13  2  0
 13 12  1  0
 12 11  2  0
 11  8  1  0
M  END
$$$$
