No_7590-complexes_sdf/6BKW-FPZ/2024-09-17-14-21-01/
     RDKit          3D

 14 14  0  0  0  0  0  0  0  0999 V2000
   -7.7129    4.2099   27.0854 C   0  0  0  0  0  0  0  0  0  0  0  0
   -8.9133    4.4736   27.0998 C   0  0  0  0  0  0  0  0  0  0  0  0
   -9.8363    3.8127   27.2418 C   0  0  0  0  0  0  0  0  0  0  0  0
   -7.2995    2.8520   27.3808 C   0  0  0  0  0  0  0  0  0  0  0  0
   -8.3226    1.9328   27.4680 C   0  0  0  0  0  0  0  0  0  0  0  0
   -9.5955    2.3639   27.4416 C   0  0  0  0  0  0  0  0  0  0  0  0
   -9.1681    6.0379   26.9266 C   0  0  0  0  0  0  0  0  0  0  0  0
   -8.4863    6.8216   25.9752 C   0  0  0  0  0  0  0  0  0  0  0  0
   -7.7945    0.2838   27.6370 Cl  0  0  0  0  0  0  0  0  0  0  0  0
   -8.8940    6.7896   28.3332 C   0  0  0  0  0  0  0  0  0  0  0  0
  -10.8729    1.2387   27.7808 Cl  0  0  0  0  0  0  0  0  0  0  0  0
  -10.5902    6.0995   26.7282 O   0  0  0  0  0  0  0  0  0  0  0  0
   -6.0536    2.4179   27.4859 O   0  0  0  0  0  0  0  0  0  0  0  0
   -5.5671    1.2985   27.7272 C   0  0  0  0  0  0  0  0  0  0  0  0
  2  7  1  0
  7  8  1  0
  5  9  1  0
  7 10  1  0
  6 11  1  0
  7 12  1  0
  4 13  1  0
 13 14  1  0
  1  2  2  0
  2  3  1  0
  3  6  2  0
  6  5  1  0
  5  4  2  0
  4  1  1  0
M  END
$$$$
