No_7117-complexes_sdf/6BKW-FPZ/2024-09-17-14-21-01/
     RDKit          3D

 19 21  0  0  0  0  0  0  0  0999 V2000
   -7.9040    3.9820   27.1177 C   0  0  0  0  0  0  0  0  0  0  0  0
   -8.2057    2.8231   26.8733 C   0  0  0  0  0  0  0  0  0  0  0  0
   -7.4766    1.7477   27.4593 C   0  0  0  0  0  0  0  0  0  0  0  0
   -8.7468    5.1251   26.6967 C   0  0  0  0  0  0  0  0  0  0  0  0
   -8.4775    6.4967   27.1056 C   0  0  0  0  0  0  0  0  0  0  0  0
   -7.7864    0.3940   27.2703 C   0  0  0  0  0  0  0  0  0  0  0  0
   -9.0192    0.1650   26.6014 C   0  0  0  0  0  0  0  0  0  0  0  0
   -9.7483    1.1632   26.0299 C   0  0  0  0  0  0  0  0  0  0  0  0
   -9.3475    2.4797   26.2024 C   0  0  0  0  0  0  0  0  0  0  0  0
   -9.3104    7.5147   26.6382 C   0  0  0  0  0  0  0  0  0  0  0  0
   -9.6701    4.8227   25.7555 C   0  0  0  0  0  0  0  0  0  0  0  0
  -10.1244    3.5193   25.5775 C   0  0  0  0  0  0  0  0  0  0  0  0
   -7.2284    6.6923   27.7907 C   0  0  0  0  0  0  0  0  0  0  0  0
   -7.0123   -0.6547   27.8938 C   0  0  0  0  0  0  0  0  0  0  0  0
   -5.7204   -0.4029   28.2984 C   0  0  0  0  0  0  0  0  0  0  0  0
   -5.0318   -1.2919   29.1754 C   0  0  0  0  0  0  0  0  0  0  0  0
   -5.6745   -2.4663   29.4699 C   0  0  0  0  0  0  0  0  0  0  0  0
   -7.5577   -1.8011   28.4714 C   0  0  0  0  0  0  0  0  0  0  0  0
   -6.9557   -2.6697   29.2350 C   0  0  0  0  0  0  0  0  0  0  0  0
  5 10  1  0
  5 13  1  0
  6 14  1  0
  5  4  1  0
  2  3  1  0
  3  6  2  0
  6  7  1  0
  7  8  2  0
  8  9  1  0
 14 15  2  0
 15 16  1  0
 16 17  2  0
 17 19  1  0
 19 18  2  0
 18 14  1  0
  1  2  2  0
  2  9  1  0
  9 12  2  0
 12 11  1  0
 11  4  2  0
  4  1  1  0
M  END
$$$$
