No_7625-complexes_sdf/6BKW-FPZ/2024-09-17-14-21-01/
     RDKit          3D

 11 10  0  0  0  0  0  0  0  0999 V2000
   -7.9040    3.9820   27.1177 C   0  0  0  0  0  0  0  0  0  0  0  0
   -8.2057    2.8231   26.8733 C   0  0  0  0  0  0  0  0  0  0  0  0
   -9.2962    2.4021   26.1155 C   0  0  0  0  0  0  0  0  0  0  0  0
   -6.8682    4.5169   28.0704 C   0  0  0  0  0  0  0  0  0  0  0  0
  -10.0578    3.3688   25.5520 C   0  0  0  0  0  0  0  0  0  0  0  0
   -9.6997    4.7480   25.6981 C   0  0  0  0  0  0  0  0  0  0  0  0
   -8.6783    5.1111   26.5262 C   0  0  0  0  0  0  0  0  0  0  0  0
   -8.3779    6.4282   26.8736 C   0  0  0  0  0  0  0  0  0  0  0  0
   -8.0398    5.8576   26.1328 Br  0  0  0  0  0  0  0  0  0  0  0  0
   -9.4071    4.7708   27.7270 F   0  0  0  0  0  0  0  0  0  0  0  0
   -6.6575    3.6926   27.4907 F   0  0  0  0  0  0  0  0  0  0  0  0
  1  2  2  3
  2  3  1  0
  1  4  1  0
  3  5  2  3
  5  6  1  0
  6  7  2  3
  7  8  1  0
  8  9  1  0
  7 10  1  0
  4 11  1  0
M  END
$$$$
