No_7292-complexes_sdf/6BKW-FPZ/2024-09-17-14-21-01/
     RDKit          3D

 10 10  0  0  0  0  0  0  0  0999 V2000
   -7.7129    4.2099   27.0854 C   0  0  0  0  0  0  0  0  0  0  0  0
   -7.7814    5.1722   27.8972 C   0  0  0  0  0  0  0  0  0  0  0  0
   -8.8998    3.8713   26.3707 C   0  0  0  0  0  0  0  0  0  0  0  0
   -9.7416    3.2213   26.9591 C   0  0  0  0  0  0  0  0  0  0  0  0
  -10.9346    2.8300   26.3222 C   0  0  0  0  0  0  0  0  0  0  0  0
   -8.9923    5.4689   28.6717 C   0  0  0  0  0  0  0  0  0  0  0  0
  -10.1134    4.4659   28.3584 C   0  0  0  0  0  0  0  0  0  0  0  0
  -11.1195    1.6643   25.9887 C   0  0  0  0  0  0  0  0  0  0  0  0
  -10.2647    0.6739   26.3798 C   0  0  0  0  0  0  0  0  0  0  0  0
   -9.1502    1.0058   27.2835 C   0  0  0  0  0  0  0  0  0  0  0  0
  4  5  1  0
  5  8  1  0
  8  9  2  3
  9 10  1  0
  1  2  2  0
  2  6  1  0
  6  7  2  0
  7  4  1  0
  4  3  2  0
  3  1  1  0
M  END
$$$$
