No_7132-complexes_sdf/6BKW-FPZ/2024-09-17-14-21-01/
     RDKit          3D

 15 16  0  0  0  0  0  0  0  0999 V2000
   -7.2496    3.8871   27.4508 C   0  0  0  0  0  0  0  0  0  0  0  0
   -8.5096    4.0291   27.2770 C   0  0  0  0  0  0  0  0  0  0  0  0
   -9.2677    5.1714   27.5773 C   0  0  0  0  0  0  0  0  0  0  0  0
   -9.2765    2.8248   26.8371 C   0  0  0  0  0  0  0  0  0  0  0  0
  -10.4623    3.0171   26.3237 C   0  0  0  0  0  0  0  0  0  0  0  0
  -10.8972    2.6250   25.3350 C   0  0  0  0  0  0  0  0  0  0  0  0
  -10.0294    1.7957   24.4945 C   0  0  0  0  0  0  0  0  0  0  0  0
   -6.5412    2.6535   27.4188 C   0  0  0  0  0  0  0  0  0  0  0  0
   -8.9195    1.2702   25.1566 C   0  0  0  0  0  0  0  0  0  0  0  0
   -8.3945    2.0204   26.2559 C   0  0  0  0  0  0  0  0  0  0  0  0
   -7.0086    1.8157   26.5683 C   0  0  0  0  0  0  0  0  0  0  0  0
   -8.5913    6.3293   27.5901 F   0  0  0  0  0  0  0  0  0  0  0  0
  -10.3650    5.3922   26.8747 F   0  0  0  0  0  0  0  0  0  0  0  0
   -9.6780    5.0557   28.9397 F   0  0  0  0  0  0  0  0  0  0  0  0
   -5.2190    2.5994   27.8850 N   0  0  0  0  0  0  0  0  0  0  0  0
  2  3  1  0
  3 12  1  0
  3 13  1  0
  3 14  1  0
  8 15  1  0
  4  5  2  0
  5  6  1  0
  6  7  2  0
  7  9  1  0
  9 10  2  0
  1  2  2  0
  2  4  1  0
  4 10  1  0
 10 11  1  0
 11  8  2  0
  8  1  1  0
M  END
$$$$
