No_742-complexes_sdf/6BKW-FPZ/2024-09-17-14-21-01/
     RDKit          3D

 26 28  0  0  0  0  0  0  0  0999 V2000
   -7.9040    3.9820   27.1177 C   0  0  0  0  0  0  0  0  0  0  0  0
   -8.2057    2.8231   26.8733 C   0  0  0  0  0  0  0  0  0  0  0  0
   -8.7695    5.0740   26.7916 C   0  0  0  0  0  0  0  0  0  0  0  0
   -9.9618    4.7598   26.1630 C   0  0  0  0  0  0  0  0  0  0  0  0
   -9.4200    2.4524   26.2849 C   0  0  0  0  0  0  0  0  0  0  0  0
  -10.2590    3.4815   25.9250 C   0  0  0  0  0  0  0  0  0  0  0  0
   -8.3840    6.4693   27.0829 C   0  0  0  0  0  0  0  0  0  0  0  0
   -7.7453    6.8270   28.1334 N   0  0  0  0  0  0  0  0  0  0  0  0
   -8.7460    7.4416   26.2544 N   0  0  0  0  0  0  0  0  0  0  0  0
   -7.2775    1.6721   27.2767 C   0  0  0  0  0  0  0  0  0  0  0  0
   -6.1194    1.9757   27.8395 N   0  0  0  0  0  0  0  0  0  0  0  0
   -7.5135    0.3392   27.0003 C   0  0  0  0  0  0  0  0  0  0  0  0
   -5.2206    0.9805   28.1737 C   0  0  0  0  0  0  0  0  0  0  0  0
   -5.4358   -0.3007   28.0247 C   0  0  0  0  0  0  0  0  0  0  0  0
   -6.6641   -0.6216   27.4291 C   0  0  0  0  0  0  0  0  0  0  0  0
   -4.0222    1.4741   28.7805 N   0  0  0  0  0  0  0  0  0  0  0  0
  -11.5045    3.1819   25.1704 C   0  0  0  0  0  0  0  0  0  0  0  0
  -11.3884    2.6928   23.9775 C   0  0  0  0  0  0  0  0  0  0  0  0
  -10.7968    1.9373   23.4804 C   0  0  0  0  0  0  0  0  0  0  0  0
  -10.7530    1.4129   22.0743 C   0  0  0  0  0  0  0  0  0  0  0  0
   -9.8539    0.4442   21.5507 C   0  0  0  0  0  0  0  0  0  0  0  0
   -9.1467   -0.1558   22.4006 C   0  0  0  0  0  0  0  0  0  0  0  0
   -8.9747    0.1053   23.7293 C   0  0  0  0  0  0  0  0  0  0  0  0
   -9.7871    1.1519   24.2593 C   0  0  0  0  0  0  0  0  0  0  0  0
   -9.4142    1.5102   25.4317 F   0  0  0  0  0  0  0  0  0  0  0  0
  -10.6329    0.4598   24.9502 F   0  0  0  0  0  0  0  0  0  0  0  0
  3  7  1  0
  7  8  2  0
  7  9  1  0
  2 10  1  0
 13 16  1  0
  6 17  1  0
 17 18  1  0
  5 25  1  0
 24 26  1  0
 18 19  1  0
 10 11  2  0
 11 13  1  0
 13 14  2  0
 14 15  1  0
 15 12  2  0
 12 10  1  0
  1  2  2  0
  2  5  1  0
  5  6  2  0
  6  4  1  0
  4  3  2  0
  3  1  1  0
 19 20  2  0
 20 21  1  0
 21 22  2  0
 22 23  1  0
 23 24  2  0
 24 19  1  0
M  END
$$$$
