No_7537-complexes_sdf/6BKW-FPZ/2024-09-17-14-21-01/
     RDKit          3D

 23 26  0  0  0  0  0  0  0  0999 V2000
   -7.2496    3.8871   27.4508 C   0  0  0  0  0  0  0  0  0  0  0  0
   -7.9379    4.9063   27.8518 C   0  0  0  0  0  0  0  0  0  0  0  0
   -7.5112    6.1898   27.6280 C   0  0  0  0  0  0  0  0  0  0  0  0
   -7.8078    2.6331   27.2522 C   0  0  0  0  0  0  0  0  0  0  0  0
   -9.1846    2.4724   27.5426 C   0  0  1  0  0  0  0  0  0  0  0  0
   -9.9168    3.5155   28.0405 C   0  0  0  0  0  0  0  0  0  0  0  0
   -9.3366    4.7963   28.1727 C   0  0  0  0  0  0  0  0  0  0  0  0
  -11.3251    3.2741   28.4031 C   0  0  0  0  0  0  0  0  0  0  0  0
  -12.2439    3.1527   27.5432 C   0  0  0  0  0  0  0  0  0  0  0  0
  -12.0060    3.1051   26.2279 C   0  0  0  0  0  0  0  0  0  0  0  0
  -10.8532    3.2118   25.7140 C   0  0  0  0  0  0  0  0  0  0  0  0
   -9.9685    2.1504   26.1408 C   0  0  1  0  0  0  0  0  0  0  0  0
   -9.6574    0.9997   25.4298 C   0  0  0  0  0  0  0  0  0  0  0  0
   -9.2632    1.2510   24.0952 C   0  0  0  0  0  0  0  0  0  0  0  0
   -8.7680    0.2318   23.2790 C   0  0  0  0  0  0  0  0  0  0  0  0
   -9.6368   -0.2178   25.9567 C   0  0  0  0  0  0  0  0  0  0  0  0
   -9.1663   -1.3318   25.1552 C   0  0  0  0  0  0  0  0  0  0  0  0
   -8.7655   -1.0619   23.8008 C   0  0  0  0  0  0  0  0  0  0  0  0
  -13.1181    3.1661   25.1904 C   0  0  0  0  0  0  0  0  0  0  0  0
  -14.2079    3.3210   25.3924 N   0  0  0  0  0  0  0  0  0  0  0  0
  -12.7960    3.0684   23.8584 N   0  0  0  0  0  0  0  0  0  0  0  0
  -13.8465    3.0745   23.0976 C   0  0  0  0  0  0  0  0  0  0  0  0
  -14.8715    3.3386   24.1362 C   0  0  0  0  0  0  0  0  0  0  0  0
  1  2  1  0
  2  3  2  0
  1  4  1  0
  5  4  1  6
  5  6  1  0
  2  7  1  0
  6  7  1  0
  6  8  1  0
  8  9  2  0
  9 10  1  0
 10 11  2  0
  5 12  1  0
 11 12  1  0
 12 13  1  6
 10 19  1  0
 19 20  2  0
 19 21  1  0
 21 22  2  0
 20 23  1  0
 22 23  1  0
 13 14  2  0
 14 15  1  0
 15 18  2  0
 18 17  1  0
 17 16  2  0
 16 13  1  0
M  END
$$$$
