No_74-complexes_sdf/6BKW-FPZ/2024-09-17-14-21-01/
     RDKit          3D

 13 14  0  0  0  0  0  0  0  0999 V2000
   -7.7129    4.2099   27.0854 C   0  0  0  0  0  0  0  0  0  0  0  0
   -8.2112    3.0637   26.9225 C   0  0  0  0  0  0  0  0  0  0  0  0
   -8.4224    5.2106   27.8516 C   0  0  0  0  0  0  0  0  0  0  0  0
   -9.5628    2.7160   27.4089 C   0  0  0  0  0  0  0  0  0  0  0  0
  -10.2428    3.7496   28.1155 C   0  0  0  0  0  0  0  0  0  0  0  0
   -9.6677    4.9738   28.3232 C   0  0  0  0  0  0  0  0  0  0  0  0
   -7.6358    6.7353   28.0263 Cl  0  0  0  0  0  0  0  0  0  0  0  0
  -10.0925    1.3897   27.2259 C   0  0  0  0  0  0  0  0  0  0  0  0
   -9.2566    0.3659   27.0572 C   0  0  0  0  0  0  0  0  0  0  0  0
   -9.7913   -0.9188   26.9859 C   0  0  0  0  0  0  0  0  0  0  0  0
  -11.1748   -1.1054   27.2295 C   0  0  0  0  0  0  0  0  0  0  0  0
  -11.4006    0.9971   27.6246 C   0  0  0  0  0  0  0  0  0  0  0  0
  -11.9227   -0.1339   27.6127 C   0  0  0  0  0  0  0  0  0  0  0  0
  3  7  1  0
  4  8  1  0
  1  2  2  0
  2  4  1  0
  4  5  2  0
  5  6  1  0
  6  3  2  0
  3  1  1  0
  8  9  2  0
  9 10  1  0
 10 11  2  0
 11 13  1  0
 13 12  2  0
 12  8  1  0
M  END
$$$$
