No_7574-complexes_sdf/6BKW-FPZ/2024-09-17-14-21-01/
     RDKit          3D

 18 19  0  0  0  0  0  0  0  0999 V2000
   -7.7129    4.2099   27.0854 C   0  0  0  0  0  0  0  0  0  0  0  0
   -7.7814    5.1722   27.8972 C   0  0  0  0  0  0  0  0  0  0  0  0
   -7.2983    2.9533   27.5684 C   0  0  0  0  0  0  0  0  0  0  0  0
   -7.6908    1.8111   26.9553 C   0  0  0  0  0  0  0  0  0  0  0  0
   -8.6533    1.9165   25.9430 C   0  0  0  0  0  0  0  0  0  0  0  0
   -9.2376    3.0581   25.6387 C   0  0  1  0  0  0  0  0  0  0  0  0
   -8.7036    4.1866   26.1364 C   0  0  0  0  0  0  0  0  0  0  0  0
   -8.2480    6.8495   27.5481 Cl  0  0  0  0  0  0  0  0  0  0  0  0
  -10.2025    3.1341   24.4831 C   0  0  0  0  0  0  0  0  0  0  0  0
  -10.8823    4.3084   24.2318 C   0  0  0  0  0  0  0  0  0  0  0  0
  -10.3078    2.1211   23.5661 C   0  0  0  0  0  0  0  0  0  0  0  0
  -11.7214    4.2876   23.3009 C   0  0  0  0  0  0  0  0  0  0  0  0
  -11.1320    2.1627   22.4834 C   0  0  0  0  0  0  0  0  0  0  0  0
  -11.8830    3.3516   22.2812 C   0  0  0  0  0  0  0  0  0  0  0  0
   -7.1110    0.4980   27.3246 C   0  0  0  0  0  0  0  0  0  0  0  0
   -5.8344    0.4380   27.9242 C   0  0  0  0  0  0  0  0  0  0  0  0
   -5.3206   -0.7727   28.3698 C   0  0  0  0  0  0  0  0  0  0  0  0
   -6.0974   -1.8975   28.2908 C   0  0  0  0  0  0  0  0  0  0  0  0
  1  2  2  3
  1  3  1  0
  3  4  1  0
  4  5  1  0
  5  6  1  0
  1  7  1  0
  6  7  1  0
  2  8  1  0
  6  9  1  6
  4 15  1  0
 15 16  2  3
 16 17  1  0
 17 18  2  0
  9 10  2  0
 10 12  1  0
 12 14  2  0
 14 13  1  0
 13 11  2  0
 11  9  1  0
M  END
$$$$
