No_7420-complexes_sdf/6BKW-FPZ/2024-09-17-14-21-01/
     RDKit          3D

 21 22  0  0  0  0  0  0  0  0999 V2000
   -7.9040    3.9820   27.1177 C   0  0  0  0  0  0  0  0  0  0  0  0
   -8.2057    2.8231   26.8733 C   0  0  0  0  0  0  0  0  0  0  0  0
   -8.7695    5.0740   26.7916 C   0  0  0  0  0  0  0  0  0  0  0  0
   -8.4337    6.4678   27.0913 C   0  0  0  0  0  0  0  0  0  0  0  0
   -9.3742    2.4311   26.2346 C   0  0  0  0  0  0  0  0  0  0  0  0
  -10.2395    3.4267   25.8887 C   0  0  0  0  0  0  0  0  0  0  0  0
   -9.9567    4.7548   26.1374 C   0  0  0  0  0  0  0  0  0  0  0  0
   -7.9449    7.5014   26.9590 N   0  0  0  0  0  0  0  0  0  0  0  0
   -7.2426    1.6814   27.2966 C   0  0  0  0  0  0  0  0  0  0  0  0
   -6.6063    0.9591   26.7597 C   0  0  0  0  0  0  0  0  0  0  0  0
   -5.6991    0.0215   27.4723 C   0  0  0  0  0  0  0  0  0  0  0  0
   -5.1146    0.4543   28.5634 C   0  0  0  0  0  0  0  0  0  0  0  0
   -5.4156    1.7434   29.1184 C   0  0  0  0  0  0  0  0  0  0  0  0
   -6.3710    2.4779   28.4086 C   0  0  0  0  0  0  0  0  0  0  0  0
   -4.0474   -0.3218   29.2801 C   0  0  1  0  0  0  0  0  0  0  0  0
   -2.9441   -0.4730   28.7869 C   0  0  0  0  0  0  0  0  0  0  0  0
   -4.3529   -0.8154   30.5957 C   0  0  0  0  0  0  0  0  0  0  0  0
   -5.2834   -1.1144   31.0956 C   0  0  0  0  0  0  0  0  0  0  0  0
   -5.5149   -1.6268   32.4391 C   0  0  0  0  0  0  0  0  0  0  0  0
   -4.4541   -1.6958   33.2835 C   0  0  0  0  0  0  0  0  0  0  0  0
   -4.5577   -2.2188   34.6029 C   0  0  0  0  0  0  0  0  0  0  0  0
  3  4  1  0
  4  8  3  0
  2  9  1  0
 12 15  1  0
 15 16  1  1
 15 17  1  0
 17 18  2  3
 18 19  1  0
 19 20  2  3
 20 21  1  0
  9 10  2  0
 10 11  1  0
 11 12  2  0
 12 13  1  0
 13 14  2  0
 14  9  1  0
  1  2  2  0
  2  5  1  0
  5  6  2  0
  6  7  1  0
  7  3  2  0
  3  1  1  0
M  END
$$$$
