No_7312-complexes_sdf/6BKW-FPZ/2024-09-17-14-21-01/
     RDKit          3D

 24 25  0  0  0  0  0  0  0  0999 V2000
   -7.9040    3.9820   27.1177 C   0  0  0  0  0  0  0  0  0  0  0  0
   -8.2057    2.8231   26.8733 C   0  0  0  0  0  0  0  0  0  0  0  0
   -8.7695    5.0740   26.7916 C   0  0  0  0  0  0  0  0  0  0  0  0
   -8.4785    6.4289   27.2922 C   0  0  0  0  0  0  0  0  0  0  0  0
   -9.2529    2.3916   26.0668 C   0  0  0  0  0  0  0  0  0  0  0  0
  -10.1277    3.4333   25.7287 C   0  0  0  0  0  0  0  0  0  0  0  0
   -9.9101    4.7626   26.0802 C   0  0  0  0  0  0  0  0  0  0  0  0
   -7.1887    1.6696   27.2808 C   0  0  0  0  0  0  0  0  0  0  0  0
   -5.9271    2.0352   27.7740 C   0  0  0  0  0  0  0  0  0  0  0  0
   -5.0763    0.9648   28.2207 C   0  0  0  0  0  0  0  0  0  0  0  0
   -5.4985   -0.3103   28.2149 C   0  0  0  0  0  0  0  0  0  0  0  0
   -7.5011    0.3192   27.3473 C   0  0  0  0  0  0  0  0  0  0  0  0
   -6.7688   -0.6195   27.8313 C   0  0  0  0  0  0  0  0  0  0  0  0
   -7.6572    6.5392   28.1811 F   0  0  0  0  0  0  0  0  0  0  0  0
   -8.1447    7.2820   26.2118 F   0  0  0  0  0  0  0  0  0  0  0  0
   -9.6752    6.9436   27.7777 F   0  0  0  0  0  0  0  0  0  0  0  0
   -4.4282   -1.1986   28.7902 C   0  0  0  0  0  0  0  0  0  0  0  0
   -3.3213   -1.1015   28.8662 N   0  0  0  0  0  0  0  0  0  0  0  0
   -5.0312   -2.3453   29.2824 F   0  0  0  0  0  0  0  0  0  0  0  0
   -2.3345   -1.9432   29.2968 C   0  0  0  0  0  0  0  0  0  0  0  0
  -11.3008    3.1756   24.8809 C   0  0  0  0  0  0  0  0  0  0  0  0
  -11.5050    3.9424   23.8129 C   0  0  0  0  0  0  0  0  0  0  0  0
  -10.5920    4.3748   23.0106 C   0  0  0  0  0  0  0  0  0  0  0  0
  -10.8405    5.1696   21.8196 C   0  0  0  0  0  0  0  0  0  0  0  0
  3  4  1  0
  2  8  1  0
  4 14  1  0
  4 15  1  0
  4 16  1  0
 11 17  1  0
 17 18  2  3
 17 19  1  0
 18 20  1  0
  6 21  1  0
 21 22  1  0
 22 23  2  3
 23 24  1  0
  1  2  2  0
  2  5  1  0
  5  6  2  0
  6  7  1  0
  7  3  2  0
  3  1  1  0
  8  9  2  0
  9 10  1  0
 10 11  2  0
 11 13  1  0
 13 12  2  0
 12  8  1  0
M  END
$$$$
