No_7576-complexes_sdf/6BKW-FPZ/2024-09-17-14-21-01/
     RDKit          3D

 30 34  0  0  0  0  0  0  0  0999 V2000
   -7.2496    3.8871   27.4508 C   0  0  0  0  0  0  0  0  0  0  0  0
   -8.5096    4.0291   27.2770 C   0  0  0  0  0  0  0  0  0  0  0  0
   -9.3502    2.8685   26.8763 C   0  0  0  0  0  0  0  0  0  0  0  0
   -6.6288    2.5513   27.4938 C   0  0  0  0  0  0  0  0  0  0  0  0
   -7.4365    1.4714   27.2032 C   0  0  0  0  0  0  0  0  0  0  0  0
   -8.7772    1.6579   26.9338 C   0  0  0  0  0  0  0  0  0  0  0  0
   -8.9255    5.4785   27.2355 C   0  0  0  0  0  0  0  0  0  0  0  0
  -10.2197    5.8019   27.0657 N   0  0  0  0  0  0  0  0  0  0  0  0
   -8.1917    6.3105   27.8360 F   0  0  0  0  0  0  0  0  0  0  0  0
   -6.8359    0.1518   27.2161 C   0  0  0  0  0  0  0  0  0  0  0  0
   -7.4704   -0.9258   27.1128 C   0  0  0  0  0  0  0  0  0  0  0  0
   -8.9185   -0.7656   27.0574 C   0  0  0  0  0  0  0  0  0  0  0  0
   -9.5694    0.4533   26.9087 C   0  0  0  0  0  0  0  0  0  0  0  0
   -5.2227    2.4329   27.8112 C   0  0  0  0  0  0  0  0  0  0  0  0
   -4.6078    1.2809   27.8458 O   0  0  0  0  0  0  0  0  0  0  0  0
   -5.3683    0.1483   27.5875 C   0  0  2  0  0  0  0  0  0  0  0  0
   -4.6243   -1.0907   27.6353 C   0  0  0  0  0  0  0  0  0  0  0  0
   -4.4952   -1.6631   28.8711 C   0  0  0  0  0  0  0  0  0  0  0  0
   -4.4485   -2.9242   28.9797 C   0  0  0  0  0  0  0  0  0  0  0  0
   -4.1349   -1.5621   26.5172 C   0  0  0  0  0  0  0  0  0  0  0  0
   -3.7636   -2.9702   26.5323 C   0  0  0  0  0  0  0  0  0  0  0  0
   -3.7903   -3.6207   27.8040 C   0  0  0  0  0  0  0  0  0  0  0  0
   -5.0385   -0.9283   30.1824 C   0  0  0  0  0  0  0  0  0  0  0  0
   -3.8911   -0.2715   30.9143 C   0  0  0  0  0  0  0  0  0  0  0  0
   -2.6985   -0.6488   30.8533 C   0  0  0  0  0  0  0  0  0  0  0  0
   -2.1560   -1.2870   32.1046 C   0  0  0  0  0  0  0  0  0  0  0  0
   -1.3886   -2.4943   31.9371 C   0  0  0  0  0  0  0  0  0  0  0  0
   -0.5990   -2.4369   30.8757 C   0  0  0  0  0  0  0  0  0  0  0  0
   -1.1445   -1.8847   29.6235 C   0  0  0  0  0  0  0  0  0  0  0  0
   -2.1290   -1.0207   29.6606 C   0  0  0  0  0  0  0  0  0  0  0  0
  2  7  1  0
  7  8  2  0
  7  9  1  0
  4 14  1  0
 14 15  1  0
 10 16  1  0
 15 16  1  0
 16 17  1  6
 18 23  1  0
 23 24  1  0
 24 25  1  0
  6 13  1  0
 13 12  2  0
 12 11  1  0
 11 10  2  0
 10  5  1  0
 17 18  1  0
 18 19  2  0
 19 22  1  0
 22 21  2  0
 21 20  1  0
 20 17  2  0
  1  2  2  0
  2  3  1  0
  3  6  2  0
  6  5  1  0
  5  4  2  0
  4  1  1  0
 25 26  2  0
 26 27  1  0
 27 28  2  0
 28 29  1  0
 29 30  2  0
 30 25  1  0
M  END
$$$$
