No_7792-complexes_sdf/6BKW-FPZ/2024-09-17-14-21-01/
     RDKit          3D

 32 34  0  0  0  0  0  0  0  0999 V2000
   -7.9040    3.9820   27.1177 C   0  0  0  0  0  0  0  0  0  0  0  0
   -8.2057    2.8231   26.8733 C   0  0  0  0  0  0  0  0  0  0  0  0
   -9.2962    2.4021   26.1155 C   0  0  0  0  0  0  0  0  0  0  0  0
   -8.7358    5.0662   26.5917 C   0  0  0  0  0  0  0  0  0  0  0  0
   -9.7618    4.7023   25.7546 C   0  0  0  0  0  0  0  0  0  0  0  0
  -10.0066    3.4105   25.4922 C   0  0  0  0  0  0  0  0  0  0  0  0
   -8.3943    6.4760   26.8801 C   0  0  0  0  0  0  0  0  0  0  0  0
   -8.6599    6.8011   28.0203 F   0  0  0  0  0  0  0  0  0  0  0  0
   -7.0507    6.6848   26.7335 F   0  0  0  0  0  0  0  0  0  0  0  0
   -8.9447    7.2930   25.9189 F   0  0  0  0  0  0  0  0  0  0  0  0
   -7.3605    1.6688   27.5005 C   0  0  0  0  0  0  0  0  0  0  0  0
   -5.9683    1.8573   27.7291 C   0  0  0  0  0  0  0  0  0  0  0  0
   -5.1927    0.8100   28.2861 C   0  0  0  0  0  0  0  0  0  0  0  0
   -5.7416   -0.4583   28.4659 C   0  0  0  0  0  0  0  0  0  0  0  0
   -7.8391    0.3575   27.6011 C   0  0  0  0  0  0  0  0  0  0  0  0
   -7.0606   -0.6260   28.1381 C   0  0  0  0  0  0  0  0  0  0  0  0
   -4.9164   -1.5137   29.0415 C   0  0  1  0  0  0  0  0  0  0  0  0
   -4.4656   -1.3611   30.2709 C   0  0  0  0  0  0  0  0  0  0  0  0
   -3.6145   -2.3486   30.9074 C   0  0  0  0  0  0  0  0  0  0  0  0
   -3.2012   -2.1159   32.2599 C   0  0  0  0  0  0  0  0  0  0  0  0
   -3.5002   -0.9329   32.9522 C   0  0  0  0  0  0  0  0  0  0  0  0
   -4.2486    0.0291   32.3001 C   0  0  0  0  0  0  0  0  0  0  0  0
   -4.7285   -0.1562   31.0820 C   0  0  0  0  0  0  0  0  0  0  0  0
   -5.7354   -2.7736   28.8320 C   0  0  0  0  0  0  0  0  0  0  0  0
   -5.6547   -3.4861   28.1229 C   0  0  0  0  0  0  0  0  0  0  0  0
   -6.4583   -4.7097   27.9620 C   0  0  0  0  0  0  0  0  0  0  0  0
   -4.9151   -3.2140   26.7891 C   0  0  0  0  0  0  0  0  0  0  0  0
   -2.8641   -0.6456   34.5288 Cl  0  0  0  0  0  0  0  0  0  0  0  0
   -3.9746   -2.5550   26.6102 C   0  0  0  0  0  0  0  0  0  0  0  0
   -2.9667   -2.2972   26.8765 C   0  0  0  0  0  0  0  0  0  0  0  0
   -2.0623   -1.1902   26.3836 C   0  0  0  0  0  0  0  0  0  0  0  0
   -6.8361   -5.3101   28.9362 O   0  0  0  0  0  0  0  0  0  0  0  0
  4  7  1  0
  7  8  1  0
  7  9  1  0
  7 10  1  0
  2 11  1  0
 14 17  1  0
 17 24  1  1
 24 25  1  0
 25 26  2  0
 25 27  1  0
 21 28  1  0
 27 29  2  3
 29 30  1  0
 30 31  2  0
 26 32  2  0
 17 18  1  0
 18 19  2  0
 19 20  1  0
 20 21  2  0
 21 22  1  0
 22 23  2  0
 23 18  1  0
  1  2  2  0
  2  3  1  0
  3  6  2  0
  6  5  1  0
  5  4  2  0
  4  1  1  0
 11 12  2  0
 12 13  1  0
 13 14  2  0
 14 16  1  0
 16 15  2  0
 15 11  1  0
M  END
$$$$
