No_7982-complexes_sdf/6BKW-FPZ/2024-09-17-14-21-01/
     RDKit          3D

 14 15  0  0  0  0  0  0  0  0999 V2000
   -7.7129    4.2099   27.0854 C   0  0  0  0  0  0  0  0  0  0  0  0
   -8.9133    4.4736   27.0998 C   0  0  0  0  0  0  0  0  0  0  0  0
   -9.4643    5.5426   27.7628 C   0  0  0  0  0  0  0  0  0  0  0  0
   -6.8373    4.9942   27.9785 C   0  0  0  0  0  0  0  0  0  0  0  0
   -7.3932    6.0303   28.6784 C   0  0  0  0  0  0  0  0  0  0  0  0
   -8.7122    6.3429   28.5485 C   0  0  0  0  0  0  0  0  0  0  0  0
   -9.6392    3.5101   26.1298 C   0  0  0  0  0  0  0  0  0  0  0  0
  -10.7520    2.8871   26.5893 C   0  0  0  0  0  0  0  0  0  0  0  0
  -11.4436    1.9622   25.8238 C   0  0  0  0  0  0  0  0  0  0  0  0
  -11.0482    1.8185   24.4941 C   0  0  0  0  0  0  0  0  0  0  0  0
   -9.9816    2.5962   23.9768 C   0  0  0  0  0  0  0  0  0  0  0  0
   -9.2694    3.4750   24.8098 C   0  0  0  0  0  0  0  0  0  0  0  0
  -11.7466    0.9426   23.5462 C   0  0  0  0  0  0  0  0  0  0  0  0
  -12.4583    0.2197   23.3983 N   0  0  0  0  0  0  0  0  0  0  0  0
  2  7  1  0
 10 13  1  0
 13 14  3  0
  1  2  2  0
  2  3  1  0
  3  6  2  0
  6  5  1  0
  5  4  2  0
  4  1  1  0
  7  8  2  0
  8  9  1  0
  9 10  2  0
 10 11  1  0
 11 12  2  0
 12  7  1  0
M  END
$$$$
