No_7525-complexes_sdf/6BKW-FPZ/2024-09-17-14-21-01/
     RDKit          3D

 29 31  0  0  0  0  0  0  0  0999 V2000
   -7.9040    3.9820   27.1177 C   0  0  0  0  0  0  0  0  0  0  0  0
   -8.2057    2.8231   26.8733 C   0  0  0  0  0  0  0  0  0  0  0  0
   -9.2962    2.4021   26.1155 C   0  0  0  0  0  0  0  0  0  0  0  0
   -6.8682    4.5169   28.0704 C   0  0  0  0  0  0  0  0  0  0  0  0
  -10.0578    3.3688   25.5520 C   0  0  0  0  0  0  0  0  0  0  0  0
   -9.6997    4.7480   25.6981 C   0  0  0  0  0  0  0  0  0  0  0  0
   -8.6783    5.1111   26.5262 C   0  0  0  0  0  0  0  0  0  0  0  0
  -11.1704    3.0676   24.6150 C   0  0  0  0  0  0  0  0  0  0  0  0
  -10.9735    2.1193   23.6765 C   0  0  0  0  0  0  0  0  0  0  0  0
  -12.0067    1.8023   22.7446 C   0  0  0  0  0  0  0  0  0  0  0  0
  -13.1915    2.5313   22.7974 C   0  0  0  0  0  0  0  0  0  0  0  0
  -12.3593    3.8515   24.5266 C   0  0  0  0  0  0  0  0  0  0  0  0
  -13.2794    3.6017   23.8067 C   0  0  0  0  0  0  0  0  0  0  0  0
   -7.1090    5.5932   28.6484 O   0  0  0  0  0  0  0  0  0  0  0  0
   -5.7545    3.8744   28.0200 O   0  0  0  0  0  0  0  0  0  0  0  0
   -7.4804    1.7518   27.4455 O   0  0  0  0  0  0  0  0  0  0  0  0
   -7.7011    0.4398   27.1419 C   0  0  0  0  0  0  0  0  0  0  0  0
   -6.6810   -0.1897   26.5648 C   0  0  2  0  0  0  0  0  0  0  0  0
   -5.5434   -0.2705   27.3318 C   0  0  0  0  0  0  0  0  0  0  0  0
   -4.3046   -0.6598   26.8253 C   0  0  0  0  0  0  0  0  0  0  0  0
   -3.0847   -0.4599   27.5368 C   0  0  0  0  0  0  0  0  0  0  0  0
   -3.1095    0.0870   28.8661 C   0  0  0  0  0  0  0  0  0  0  0  0
   -4.4090    0.4821   29.4075 C   0  0  0  0  0  0  0  0  0  0  0  0
   -5.4867    0.3664   28.6052 C   0  0  0  0  0  0  0  0  0  0  0  0
   -6.3518    0.2921   25.3441 F   0  0  0  0  0  0  0  0  0  0  0  0
   -7.0829   -1.6888   26.3162 C   0  0  0  0  0  0  0  0  0  0  0  0
   -7.6752   -2.0473   25.3077 C   0  0  0  0  0  0  0  0  0  0  0  0
   -8.0868   -2.9735   24.9889 C   0  0  0  0  0  0  0  0  0  0  0  0
   -7.9120   -4.1184   25.8750 C   0  0  0  0  0  0  0  0  0  0  0  0
  1  4  1  0
  5  8  1  0
  4 14  2  0
  4 15  1  0
  2 16  1  0
 16 17  1  0
 17 18  1  0
 18 19  1  0
 18 25  1  6
 18 26  1  0
 26 27  2  3
 27 28  1  0
 28 29  2  0
  8  9  2  0
  9 10  1  0
 10 11  2  0
 11 13  1  0
 13 12  2  0
 12  8  1  0
 19 20  2  0
 20 21  1  0
 21 22  2  0
 22 23  1  0
 23 24  2  0
 24 19  1  0
  1  2  2  0
  2  3  1  0
  3  5  2  0
  5  6  1  0
  6  7  2  0
  7  1  1  0
M  END
$$$$
