No_791-complexes_sdf/6BKW-FPZ/2024-09-17-14-21-01/
     RDKit          3D

 36 38  0  0  0  0  0  0  0  0999 V2000
   -7.7129    4.2099   27.0854 C   0  0  0  0  0  0  0  0  0  0  0  0
   -8.2112    3.0637   26.9225 C   0  0  0  0  0  0  0  0  0  0  0  0
   -8.5108    5.3904   26.9436 C   0  0  0  0  0  0  0  0  0  0  0  0
   -9.5333    5.2878   26.5026 C   0  0  0  0  0  0  0  0  0  0  0  0
   -9.5076    2.8934   26.4895 C   0  0  0  0  0  0  0  0  0  0  0  0
  -10.2017    4.0665   26.2286 C   0  0  0  0  0  0  0  0  0  0  0  0
   -7.8044    6.7078   27.2861 C   0  0  0  0  0  0  0  0  0  0  0  0
   -7.2059    1.5635   27.2461 P   0  0  1  0  0  0  0  0  0  0  0  0
   -8.1132    0.6712   27.8624 O   0  0  0  0  0  0  0  0  0  0  0  0
   -6.8385    1.0380   25.8883 O   0  0  0  0  0  0  0  0  0  0  0  0
   -6.0538    1.9093   28.0201 O   0  0  0  0  0  0  0  0  0  0  0  0
   -6.8475    6.6927   28.0982 F   0  0  0  0  0  0  0  0  0  0  0  0
   -8.1488    7.9284   26.6831 C   0  0  0  0  0  0  0  0  0  0  0  0
   -5.0401    1.0638   28.1524 C   0  0  0  0  0  0  0  0  0  0  0  0
   -4.8687    0.0828   27.6083 C   0  0  1  0  0  0  0  0  0  0  0  0
   -3.8226   -0.0947   27.1088 O   0  0  0  0  0  0  0  0  0  0  0  0
   -3.5851   -0.9115   26.0712 C   0  0  0  0  0  0  0  0  0  0  0  0
   -4.9092   -1.3177   25.5636 C   0  0  0  0  0  0  0  0  0  0  0  0
   -4.9642   -1.2050   28.5589 C   0  0  0  0  0  0  0  0  0  0  0  0
   -4.5170   -0.8607   29.8169 C   0  0  0  0  0  0  0  0  0  0  0  0
   -4.8109   -1.8074   30.9460 C   0  0  0  0  0  0  0  0  0  0  0  0
   -5.5990   -2.5201   30.9720 C   0  0  0  0  0  0  0  0  0  0  0  0
   -5.9495   -3.4639   32.0431 C   0  0  0  0  0  0  0  0  0  0  0  0
   -5.2210   -3.2574   33.2444 C   0  0  0  0  0  0  0  0  0  0  0  0
   -4.2545   -2.2468   33.3345 C   0  0  0  0  0  0  0  0  0  0  0  0
   -4.0148   -1.4648   32.2196 C   0  0  0  0  0  0  0  0  0  0  0  0
   -5.0011   -1.5323   24.1555 C   0  0  0  0  0  0  0  0  0  0  0  0
   -6.4301   -1.5843   23.7188 C   0  0  0  0  0  0  0  0  0  0  0  0
   -7.2689   -2.3217   24.5121 C   0  0  0  0  0  0  0  0  0  0  0  0
   -8.6188   -2.2675   24.1372 C   0  0  0  0  0  0  0  0  0  0  0  0
   -9.0064   -1.5226   23.0742 C   0  0  0  0  0  0  0  0  0  0  0  0
   -8.1056   -0.8066   22.2343 C   0  0  0  0  0  0  0  0  0  0  0  0
   -6.7714   -0.8199   22.5954 C   0  0  0  0  0  0  0  0  0  0  0  0
   -3.0185   -0.3921   32.2379 C   0  0  0  0  0  0  0  0  0  0  0  0
   -2.7558    0.3814   31.1827 O   0  0  0  0  0  0  0  0  0  0  0  0
   -2.2803   -0.3061   33.4168 N   0  0  0  0  0  0  0  0  0  0  0  0
  3  7  1  0
  2  8  1  0
  8  9  1  1
  8 10  2  0
  8 11  1  0
  7 12  1  0
  7 13  1  0
 11 14  1  0
 15 14  1  1
 15 16  1  0
 16 17  1  0
 17 18  1  0
 15 19  1  0
 19 20  1  0
 20 21  1  0
 18 27  2  3
 27 28  1  0
 26 34  1  0
 34 35  2  0
 34 36  1  0
 28 29  2  0
 29 30  1  0
 30 31  2  0
 31 32  1  0
 32 33  2  0
 33 28  1  0
  1  2  2  0
  2  5  1  0
  5  6  2  0
  6  4  1  0
  4  3  2  0
  3  1  1  0
 21 22  2  0
 22 23  1  0
 23 24  2  0
 24 25  1  0
 25 26  2  0
 26 21  1  0
M  END
$$$$
