No_7270-complexes_sdf/6BKW-FPZ/2024-09-17-14-21-01/
     RDKit          3D

 22 25  0  0  0  0  0  0  0  0999 V2000
   -7.9040    3.9820   27.1177 C   0  0  0  0  0  0  0  0  0  0  0  0
   -8.2057    2.8231   26.8733 C   0  0  0  0  0  0  0  0  0  0  0  0
   -9.2962    2.4021   26.1155 C   0  0  0  0  0  0  0  0  0  0  0  0
   -8.7358    5.0662   26.5917 C   0  0  0  0  0  0  0  0  0  0  0  0
   -9.7618    4.7023   25.7546 C   0  0  0  0  0  0  0  0  0  0  0  0
  -10.0066    3.4105   25.4922 C   0  0  0  0  0  0  0  0  0  0  0  0
   -8.3936    6.4769   26.8843 C   0  0  0  0  0  0  0  0  0  0  0  0
   -8.0660    7.5190   27.0318 N   0  0  0  0  0  0  0  0  0  0  0  0
   -9.5373    0.9624   25.8652 C   0  0  0  0  0  0  0  0  0  0  0  0
   -8.6773    0.1949   25.4962 C   0  0  0  0  0  0  0  0  0  0  0  0
   -7.4587    0.3757   25.5105 C   0  0  0  0  0  0  0  0  0  0  0  0
   -6.5821   -0.7616   25.2094 C   0  0  0  0  0  0  0  0  0  0  0  0
   -7.0355   -1.8021   24.5355 C   0  0  0  0  0  0  0  0  0  0  0  0
   -8.4140   -1.9284   24.3641 C   0  0  0  0  0  0  0  0  0  0  0  0
   -9.2160   -0.9838   24.8676 C   0  0  0  0  0  0  0  0  0  0  0  0
  -10.8557    0.6430   26.4088 C   0  0  0  0  0  0  0  0  0  0  0  0
  -11.7002    1.4576   26.9877 C   0  0  0  0  0  0  0  0  0  0  0  0
  -12.8572    0.8787   27.6853 C   0  0  0  0  0  0  0  0  0  0  0  0
  -13.0877   -0.4538   27.5306 C   0  0  0  0  0  0  0  0  0  0  0  0
  -12.2499   -1.2585   26.8276 C   0  0  0  0  0  0  0  0  0  0  0  0
  -11.1165   -0.7744   26.3391 C   0  0  0  0  0  0  0  0  0  0  0  0
  -10.2372   -1.5828   25.5761 C   0  0  0  0  0  0  0  0  0  0  0  0
  4  7  1  0
  7  8  3  0
  3  9  1  0
  9 10  1  0
  9 16  1  0
 15 22  1  0
 21 22  1  0
  1  2  2  0
  2  3  1  0
  3  6  2  0
  6  5  1  0
  5  4  2  0
  4  1  1  0
 10 11  2  0
 11 12  1  0
 12 13  2  0
 13 14  1  0
 14 15  2  0
 15 10  1  0
 16 17  2  0
 17 18  1  0
 18 19  2  0
 19 20  1  0
 20 21  2  0
 21 16  1  0
M  END
$$$$
