No_7511-complexes_sdf/6BKW-FPZ/2024-09-17-14-21-01/
     RDKit          3D

 32 34  0  0  0  0  0  0  0  0999 V2000
   -7.2496    3.8871   27.4508 C   0  0  0  0  0  0  0  0  0  0  0  0
   -7.6161    2.7143   27.1523 C   0  0  0  0  0  0  0  0  0  0  0  0
   -8.6212    2.2239   26.4074 C   0  0  0  0  0  0  0  0  0  0  0  0
   -8.2540    4.9237   27.1711 C   0  0  0  0  0  0  0  0  0  0  0  0
   -9.3729    4.5806   26.4433 C   0  0  0  0  0  0  0  0  0  0  0  0
   -9.5830    3.2969   26.1026 C   0  0  0  0  0  0  0  0  0  0  0  0
   -7.9331    6.3206   27.5425 C   0  0  0  0  0  0  0  0  0  0  0  0
   -8.9192    7.1951   27.4199 F   0  0  0  0  0  0  0  0  0  0  0  0
   -6.8909    6.8147   26.8179 F   0  0  0  0  0  0  0  0  0  0  0  0
   -8.8814    0.8768   26.0736 C   0  0  0  0  0  0  0  0  0  0  0  0
   -9.1108   -0.0410   27.0202 C   0  0  0  0  0  0  0  0  0  0  0  0
   -9.3455   -1.0202   27.1912 C   0  0  0  0  0  0  0  0  0  0  0  0
   -9.4915   -1.8612   26.0558 C   0  0  0  0  0  0  0  0  0  0  0  0
   -8.8662    0.4594   24.7652 C   0  0  1  0  0  0  0  0  0  0  0  0
   -8.8019    1.2244   23.6395 C   0  0  0  0  0  0  0  0  0  0  0  0
   -9.2204   -1.0046   24.5679 C   0  0  0  0  0  0  0  0  0  0  0  0
   -7.4487    6.3236   28.8108 F   0  0  0  0  0  0  0  0  0  0  0  0
   -9.3496   -1.6808   23.4162 C   0  0  1  0  0  0  0  0  0  0  0  0
  -10.3047   -1.7291   22.9546 C   0  0  0  0  0  0  0  0  0  0  0  0
  -11.4246   -1.5240   23.1638 C   0  0  0  0  0  0  0  0  0  0  0  0
  -12.6351   -1.7015   22.2872 C   0  0  0  0  0  0  0  0  0  0  0  0
  -12.3549   -2.1451   21.0348 C   0  0  0  0  0  0  0  0  0  0  0  0
  -11.1089   -2.3892   20.5682 C   0  0  0  0  0  0  0  0  0  0  0  0
  -10.0306   -2.1927   21.3630 C   0  0  0  0  0  0  0  0  0  0  0  0
   -8.1047   -1.9872   23.1288 F   0  0  0  0  0  0  0  0  0  0  0  0
   -9.5919   -1.9664   28.3856 C   0  0  0  0  0  0  0  0  0  0  0  0
   -8.5290   -1.7683   29.2075 F   0  0  0  0  0  0  0  0  0  0  0  0
   -9.5086   -3.2698   28.1600 F   0  0  0  0  0  0  0  0  0  0  0  0
  -10.7379   -1.6011   28.9693 F   0  0  0  0  0  0  0  0  0  0  0  0
   -9.9695    0.1428   24.4630 S   0  0  0  0  0  0  0  0  0  0  0  0
  -11.0448    0.7050   25.6390 C   0  0  0  0  0  0  0  0  0  0  0  0
  -10.8523    0.2887   23.2864 O   0  0  0  0  0  0  0  0  0  0  0  0
  4  7  1  0
  7  8  1  0
  7  9  1  0
  3 10  1  0
 10 11  2  0
 11 12  1  0
 12 13  2  0
 10 14  1  0
 14 15  1  1
 13 16  1  0
 14 16  1  0
  7 17  1  0
 16 18  1  0
 18 19  1  0
 18 25  1  6
 12 26  1  0
 26 27  1  0
 26 28  1  0
 26 29  1  0
 14 30  1  0
 30 31  1  1
 30 32  2  0
  1  2  2  0
  2  3  1  0
  3  6  2  0
  6  5  1  0
  5  4  2  0
  4  1  1  0
 19 20  2  0
 20 21  1  0
 21 22  2  0
 22 23  1  0
 23 24  2  0
 24 19  1  0
M  END
$$$$
