No_778-complexes_sdf/6BKW-FPZ/2024-09-17-14-21-01/
     RDKit          3D

 24 27  0  0  0  0  0  0  0  0999 V2000
   -7.9040    3.9820   27.1177 C   0  0  0  0  0  0  0  0  0  0  0  0
   -9.0711    4.3164   27.0630 C   0  0  0  0  0  0  0  0  0  0  0  0
   -9.5182    5.5541   27.5777 C   0  0  0  0  0  0  0  0  0  0  0  0
   -6.9424    4.7983   27.8424 C   0  0  0  0  0  0  0  0  0  0  0  0
   -7.3526    5.9739   28.3909 C   0  0  0  0  0  0  0  0  0  0  0  0
   -8.6479    6.3742   28.2170 C   0  0  0  0  0  0  0  0  0  0  0  0
  -10.0621    3.4422   26.3345 C   0  0  0  0  0  0  0  0  0  0  0  0
   -9.6335    2.6185   25.4370 C   0  0  0  0  0  0  0  0  0  0  0  0
  -10.4839    1.8300   24.6020 C   0  0  0  0  0  0  0  0  0  0  0  0
  -11.8333    2.0895   24.6570 C   0  0  0  0  0  0  0  0  0  0  0  0
  -11.3556    3.7406   26.0710 C   0  0  0  0  0  0  0  0  0  0  0  0
  -12.2595    3.1110   25.4383 C   0  0  0  0  0  0  0  0  0  0  0  0
   -9.9333    0.7057   23.7779 C   0  0  0  0  0  0  0  0  0  0  0  0
   -9.0793   -0.1644   24.1769 C   0  0  0  0  0  0  0  0  0  0  0  0
   -8.5171   -1.1345   23.2626 C   0  0  0  0  0  0  0  0  0  0  0  0
   -8.9065   -1.1065   21.9018 C   0  0  0  0  0  0  0  0  0  0  0  0
  -10.1309    0.6687   22.3749 C   0  0  0  0  0  0  0  0  0  0  0  0
  -11.0483    1.8124   21.8708 C   0  0  0  0  0  0  0  0  0  0  0  0
   -9.6473   -0.1437   21.4579 C   0  0  0  0  0  0  0  0  0  0  0  0
  -11.8699    1.5702   20.8175 C   0  0  0  0  0  0  0  0  0  0  0  0
  -12.5990    2.5769   20.2319 C   0  0  0  0  0  0  0  0  0  0  0  0
  -12.5912    3.8788   20.8169 C   0  0  0  0  0  0  0  0  0  0  0  0
  -11.7589    4.1593   21.8601 C   0  0  0  0  0  0  0  0  0  0  0  0
  -10.9650    3.1853   22.3949 C   0  0  0  0  0  0  0  0  0  0  0  0
  2  7  1  0
  9 13  1  0
 17 18  1  0
  7  8  2  0
  8  9  1  0
  9 10  2  0
 10 12  1  0
 12 11  2  0
 11  7  1  0
  1  2  2  0
  2  3  1  0
  3  6  2  0
  6  5  1  0
  5  4  2  0
  4  1  1  0
 13 14  2  0
 14 15  1  0
 15 16  2  0
 16 19  1  0
 19 17  2  0
 17 13  1  0
 18 20  2  0
 20 21  1  0
 21 22  2  0
 22 23  1  0
 23 24  2  0
 24 18  1  0
M  END
$$$$
