No_7799-complexes_sdf/6BKW-FPZ/2024-09-17-14-21-01/
     RDKit          3D

 40 45  0  0  0  0  0  0  0  0999 V2000
   -7.9040    3.9820   27.1177 C   0  0  2  0  0  0  0  0  0  0  0  0
   -7.8663    4.8694   27.9238 C   0  0  0  0  0  0  0  0  0  0  0  0
   -9.0491    3.8523   26.2542 C   0  0  1  0  0  0  0  0  0  0  0  0
   -9.7161    4.8785   25.9890 C   0  0  0  0  0  0  0  0  0  0  0  0
   -8.4350    6.1486   27.6826 C   0  0  0  0  0  0  0  0  0  0  0  0
   -9.6240    6.0947   26.8541 C   0  0  0  0  0  0  0  0  0  0  0  0
   -7.1296    2.6753   27.3893 C   0  0  0  0  0  0  0  0  0  0  0  0
   -7.4386    1.4117   26.8755 C   0  0  0  0  0  0  0  0  0  0  0  0
   -6.6210    0.3843   27.0927 C   0  0  0  0  0  0  0  0  0  0  0  0
   -5.3915    0.6031   27.7985 C   0  0  0  0  0  0  0  0  0  0  0  0
   -5.0137    1.8866   28.2096 C   0  0  0  0  0  0  0  0  0  0  0  0
   -5.7974    2.9128   27.9446 C   0  0  0  0  0  0  0  0  0  0  0  0
   -4.5065   -0.5629   28.0742 C   0  0  0  0  0  0  0  0  0  0  0  0
   -4.2879   -1.0383   28.9796 C   0  0  0  0  0  0  0  0  0  0  0  0
   -3.3554   -2.1943   29.2479 C   0  0  0  0  0  0  0  0  0  0  0  0
   -2.7204   -2.6574   28.1228 C   0  0  0  0  0  0  0  0  0  0  0  0
   -3.6981   -1.1666   26.9762 C   0  0  0  0  0  0  0  0  0  0  0  0
   -3.9569   -0.4278   25.5941 C   0  0  0  0  0  0  0  0  0  0  0  0
   -2.8480   -2.1334   26.9400 C   0  0  0  0  0  0  0  0  0  0  0  0
   -9.2091    2.7520   25.4032 N   0  0  0  0  0  0  0  0  0  0  0  0
   -8.5186    1.5342   25.7628 C   0  0  0  0  0  0  0  0  0  0  0  0
  -10.1515    2.6023   24.4202 C   0  0  0  0  0  0  0  0  0  0  0  0
   -8.8654    0.4480   25.2731 O   0  0  0  0  0  0  0  0  0  0  0  0
  -11.3938    2.6382   24.7735 C   0  0  0  0  0  0  0  0  0  0  0  0
  -11.9089    2.4365   25.7835 C   0  0  0  0  0  0  0  0  0  0  0  0
  -12.8160    2.5567   26.3371 C   0  0  0  0  0  0  0  0  0  0  0  0
  -13.4904    2.7206   27.1271 C   0  0  0  0  0  0  0  0  0  0  0  0
  -13.3169    2.1563   28.4766 C   0  0  0  0  0  0  0  0  0  0  0  0
  -11.9821    1.6416   28.5763 C   0  0  0  0  0  0  0  0  0  0  0  0
  -10.9660    1.4871   27.7354 C   0  0  0  0  0  0  0  0  0  0  0  0
  -10.7131    1.7202   26.6357 C   0  0  1  0  0  0  0  0  0  0  0  0
  -11.1944    0.2038   26.1652 C   0  0  0  0  0  0  0  0  0  0  0  0
  -12.3501   -0.4305   26.6166 C   0  0  0  0  0  0  0  0  0  0  0  0
  -13.6324    2.7938   25.2362 O   0  0  0  0  0  0  0  0  0  0  0  0
  -12.2562   -1.1307   27.6512 C   0  0  0  0  0  0  0  0  0  0  0  0
  -13.3275   -1.9794   28.1126 C   0  0  0  0  0  0  0  0  0  0  0  0
  -13.2267   -2.7361   29.2922 C   0  0  0  0  0  0  0  0  0  0  0  0
  -12.0680   -2.6655   30.0967 C   0  0  0  0  0  0  0  0  0  0  0  0
  -11.0128   -1.8440   29.6929 C   0  0  0  0  0  0  0  0  0  0  0  0
  -11.0837   -1.1314   28.5920 C   0  0  0  0  0  0  0  0  0  0  0  0
  1  2  1  1
  1  3  1  0
  3  4  1  6
  2  5  1  0
  4  6  1  0
  5  6  1  0
  1  7  1  0
 10 13  1  0
 17 18  1  0
  3 20  1  0
  8 21  1  0
 20 21  1  0
 20 22  1  0
 21 23  2  0
 22 24  1  0
 24 25  1  0
 25 26  2  0
 26 27  1  0
 27 28  2  0
 28 29  1  0
 29 30  2  0
 25 31  1  0
 30 31  1  0
 31 32  1  6
 32 33  1  0
 26 34  1  0
 33 35  1  0
 35 36  2  0
 36 37  1  0
 37 38  2  0
 38 39  1  0
 39 40  2  0
 40 35  1  0
  7  8  2  0
  8  9  1  0
  9 10  2  0
 10 11  1  0
 11 12  2  0
 12  7  1  0
 13 14  2  0
 14 15  1  0
 15 16  2  0
 16 19  1  0
 19 17  2  0
 17 13  1  0
M  END
$$$$
