No_7193-complexes_sdf/6BKW-FPZ/2024-09-17-14-21-01/
     RDKit          3D

 16 17  0  0  0  0  0  0  0  0999 V2000
   -7.9040    3.9820   27.1177 C   0  0  0  0  0  0  0  0  0  0  0  0
   -8.2057    2.8231   26.8733 C   0  0  0  0  0  0  0  0  0  0  0  0
   -7.0130    4.3706   28.1140 C   0  0  0  0  0  0  0  0  0  0  0  0
   -7.4093    1.7370   27.3857 C   0  0  0  0  0  0  0  0  0  0  0  0
   -6.1943    2.1490   28.0403 C   0  0  0  0  0  0  0  0  0  0  0  0
   -5.9708    3.4680   28.3199 C   0  0  0  0  0  0  0  0  0  0  0  0
   -8.9091    5.0939   26.7085 C   0  0  0  0  0  0  0  0  0  0  0  0
   -9.1446    5.1181   25.4822 F   0  0  0  0  0  0  0  0  0  0  0  0
  -10.1085    4.9593   27.3737 F   0  0  0  0  0  0  0  0  0  0  0  0
   -8.4599    6.4036   26.9639 F   0  0  0  0  0  0  0  0  0  0  0  0
   -5.2273    1.0760   28.4019 C   0  0  0  0  0  0  0  0  0  0  0  0
   -3.9352    1.3341   28.7512 C   0  0  0  0  0  0  0  0  0  0  0  0
   -3.1227    0.2653   29.1513 C   0  0  0  0  0  0  0  0  0  0  0  0
   -5.6800   -0.2544   28.4453 C   0  0  0  0  0  0  0  0  0  0  0  0
   -4.8675   -1.2701   28.8465 C   0  0  0  0  0  0  0  0  0  0  0  0
   -3.5840   -1.0102   29.1963 C   0  0  0  0  0  0  0  0  0  0  0  0
  1  7  1  0
  7  8  1  0
  7  9  1  0
  7 10  1  0
  5 11  1  0
  1  2  2  0
  2  4  1  0
  4  5  2  0
  5  6  1  0
  6  3  2  0
  3  1  1  0
 11 12  2  0
 12 13  1  0
 13 16  2  0
 16 15  1  0
 15 14  2  0
 14 11  1  0
M  END
$$$$
