No_7719-complexes_sdf/6BKW-FPZ/2024-09-17-14-21-01/
     RDKit          3D

 40 44  0  0  0  0  0  0  0  0999 V2000
   -7.9040    3.9820   27.1177 C   0  0  0  0  0  0  0  0  0  0  0  0
   -8.2057    2.8231   26.8733 C   0  0  0  0  0  0  0  0  0  0  0  0
   -8.7695    5.0740   26.7916 C   0  0  0  0  0  0  0  0  0  0  0  0
   -8.4337    6.4678   27.0913 C   0  0  0  0  0  0  0  0  0  0  0  0
   -9.3742    2.4311   26.2346 C   0  0  0  0  0  0  0  0  0  0  0  0
  -10.2395    3.4267   25.8887 C   0  0  0  0  0  0  0  0  0  0  0  0
   -9.9567    4.7548   26.1374 C   0  0  0  0  0  0  0  0  0  0  0  0
   -7.9839    7.5474   27.0128 N   0  0  0  0  0  0  0  0  0  0  0  0
   -7.2381    1.6824   27.2965 C   0  0  0  0  0  0  0  0  0  0  0  0
   -7.5213    0.3277   27.2114 C   0  0  0  0  0  0  0  0  0  0  0  0
   -6.5689   -0.5456   27.5900 C   0  0  0  0  0  0  0  0  0  0  0  0
   -5.3057   -0.0893   28.0772 C   0  0  0  0  0  0  0  0  0  0  0  0
   -5.0609    1.2745   28.1654 C   0  0  0  0  0  0  0  0  0  0  0  0
   -5.9240    2.1251   27.7758 C   0  0  0  0  0  0  0  0  0  0  0  0
   -4.3187   -1.1138   28.5774 C   0  0  2  0  0  0  0  0  0  0  0  0
   -3.6720   -1.0559   29.5732 C   0  0  0  0  0  0  0  0  0  0  0  0
   -2.6602   -1.9421   29.9700 C   0  0  0  0  0  0  0  0  0  0  0  0
   -2.5100   -3.0410   29.1398 C   0  0  1  0  0  0  0  0  0  0  0  0
   -3.8403   -2.3343   27.9418 C   0  0  0  0  0  0  0  0  0  0  0  0
   -3.7530   -3.2092   27.0923 C   0  0  1  0  0  0  0  0  0  0  0  0
   -4.4960   -3.1035   25.7497 C   0  0  0  0  0  0  0  0  0  0  0  0
   -2.6405   -4.0193   27.5589 C   0  0  0  0  0  0  0  0  0  0  0  0
  -11.4664    3.1139   25.1141 C   0  0  0  0  0  0  0  0  0  0  0  0
  -12.5901    2.8295   25.7786 C   0  0  0  0  0  0  0  0  0  0  0  0
  -12.7031    2.4473   26.9268 C   0  0  0  0  0  0  0  0  0  0  0  0
  -11.5367    2.2300   27.7567 C   0  0  1  0  0  0  0  0  0  0  0  0
  -11.1293    3.1359   28.7427 C   0  0  0  0  0  0  0  0  0  0  0  0
  -11.1552    0.8169   27.9760 C   0  0  0  0  0  0  0  0  0  0  0  0
   -5.7790   -3.5409   25.6972 C   0  0  0  0  0  0  0  0  0  0  0  0
   -6.5114   -3.2329   24.5240 C   0  0  0  0  0  0  0  0  0  0  0  0
   -5.8811   -2.4788   23.4987 C   0  0  0  0  0  0  0  0  0  0  0  0
   -4.6672   -1.8327   23.7281 C   0  0  0  0  0  0  0  0  0  0  0  0
   -3.8922   -2.1344   24.9038 C   0  0  0  0  0  0  0  0  0  0  0  0
   -6.6232   -2.0904   22.3184 C   0  0  0  0  0  0  0  0  0  0  0  0
   -7.8643   -2.4753   22.3985 F   0  0  0  0  0  0  0  0  0  0  0  0
   -6.0111   -2.6331   21.2560 F   0  0  0  0  0  0  0  0  0  0  0  0
   -6.6265   -0.7352   22.1197 F   0  0  0  0  0  0  0  0  0  0  0  0
  -11.9752   -0.0241   28.8334 C   0  0  0  0  0  0  0  0  0  0  0  0
  -12.1404   -1.0907   28.4770 C   0  0  0  0  0  0  0  0  0  0  0  0
  -13.0467   -2.0142   29.2285 C   0  0  0  0  0  0  0  0  0  0  0  0
  3  4  1  0
  4  8  3  0
  2  9  1  0
 15 12  1  6
 15 16  1  0
 16 17  2  0
 17 18  1  0
 15 19  1  0
 18 19  1  0
 19 20  1  0
 18 22  1  6
 20 22  1  0
  6 23  1  0
 23 24  1  0
 24 25  2  3
 25 26  1  0
 26 27  1  1
 26 28  1  0
 31 34  1  0
 34 35  1  0
 34 36  1  0
 34 37  1  0
 28 38  2  3
 38 39  1  0
 39 40  1  0
 20 21  1  6
  9 10  2  0
 10 11  1  0
 11 12  2  0
 12 13  1  0
 13 14  2  0
 14  9  1  0
 21 29  2  0
 29 30  1  0
 30 31  2  0
 31 32  1  0
 32 33  2  0
 33 21  1  0
  1  2  2  0
  2  5  1  0
  5  6  2  0
  6  7  1  0
  7  3  2  0
  3  1  1  0
M  END
$$$$
