No_7721-complexes_sdf/6BKW-FPZ/2024-09-17-14-21-01/
     RDKit          3D

 12 12  0  0  0  0  0  0  0  0999 V2000
   -7.2496    3.8871   27.4508 C   0  0  0  0  0  0  0  0  0  0  0  0
   -7.9379    4.9063   27.8518 C   0  0  0  0  0  0  0  0  0  0  0  0
   -9.3376    4.8647   27.7795 C   0  0  0  0  0  0  0  0  0  0  0  0
   -7.8544    2.6294   27.0414 C   0  0  0  0  0  0  0  0  0  0  0  0
   -9.2852    2.6570   27.0666 C   0  0  0  0  0  0  0  0  0  0  0  0
  -10.0126    3.7528   27.4890 C   0  0  0  0  0  0  0  0  0  0  0  0
   -9.7790    1.2782   26.6853 C   0  0  0  0  0  0  0  0  0  0  0  0
  -10.9543    0.9698   26.7201 F   0  0  0  0  0  0  0  0  0  0  0  0
   -9.2171    0.9458   25.4452 F   0  0  0  0  0  0  0  0  0  0  0  0
   -9.0726    0.3023   27.4754 F   0  0  0  0  0  0  0  0  0  0  0  0
   -7.3469    6.0868   28.1586 O   0  0  0  0  0  0  0  0  0  0  0  0
  -11.7010    3.6181   27.5593 Cl  0  0  0  0  0  0  0  0  0  0  0  0
  5  7  1  0
  7  8  1  0
  7  9  1  0
  7 10  1  0
  2 11  1  0
  6 12  1  0
  1  2  2  0
  2  3  1  0
  3  6  2  0
  6  5  1  0
  5  4  2  0
  4  1  1  0
M  END
$$$$
