No_7147-complexes_sdf/6BKW-FPZ/2024-09-17-14-21-01/
     RDKit          3D

 18 20  0  0  0  0  0  0  0  0999 V2000
   -7.2496    3.8871   27.4508 C   0  0  0  0  0  0  0  0  0  0  0  0
   -7.6161    2.7143   27.1523 C   0  0  0  0  0  0  0  0  0  0  0  0
   -8.6212    2.2239   26.4073 C   0  0  0  0  0  0  0  0  0  0  0  0
   -8.2540    4.9237   27.1711 C   0  0  0  0  0  0  0  0  0  0  0  0
   -9.3729    4.5806   26.4433 C   0  0  0  0  0  0  0  0  0  0  0  0
   -9.5830    3.2969   26.1026 C   0  0  0  0  0  0  0  0  0  0  0  0
   -7.9478    6.2272   27.5121 N   0  0  0  0  0  0  0  0  0  0  0  0
   -9.0429    0.9204   26.0363 C   0  0  0  0  0  0  0  0  0  0  0  0
   -9.5532    0.6064   25.1271 N   0  0  0  0  0  0  0  0  0  0  0  0
   -9.7847   -0.5159   24.5660 C   0  0  0  0  0  0  0  0  0  0  0  0
   -8.5357    0.0074   26.8839 O   0  0  0  0  0  0  0  0  0  0  0  0
   -8.7682    7.3020   27.1286 C   0  0  0  0  0  0  0  0  0  0  0  0
  -10.3547   -0.7041   23.6161 C   0  0  0  0  0  0  0  0  0  0  0  0
  -10.8611    0.4066   22.7574 C   0  0  0  0  0  0  0  0  0  0  0  0
  -10.5037    1.6777   23.2075 C   0  0  0  0  0  0  0  0  0  0  0  0
   -9.8871    1.8347   24.3012 C   0  0  1  0  0  0  0  0  0  0  0  0
   -9.9134    3.0595   24.8264 N   0  0  0  0  0  0  0  0  0  0  0  0
  -10.5307    4.0145   23.9512 C   0  0  0  0  0  0  0  0  0  0  0  0
  4  7  1  0
  3  8  1  0
  8  9  1  0
  9 10  1  0
  8 11  2  0
  7 12  1  0
 13 14  1  0
  9 16  1  0
 16 15  1  1
  6 17  1  0
 16 17  1  0
 17 18  1  0
 10 13  1  0
 14 15  1  0
  1  2  2  0
  2  3  1  0
  3  6  2  0
  6  5  1  0
  5  4  2  0
  4  1  1  0
M  END
$$$$
