No_7458-complexes_sdf/6BKW-FPZ/2024-09-17-14-21-01/
     RDKit          3D

 18 19  0  0  0  0  0  0  0  0999 V2000
   -7.9040    3.9820   27.1177 C   0  0  0  0  0  0  0  0  0  0  0  0
   -8.2057    2.8231   26.8733 C   0  0  0  0  0  0  0  0  0  0  0  0
   -8.7695    5.0740   26.7916 C   0  0  0  0  0  0  0  0  0  0  0  0
   -9.9618    4.7598   26.1630 C   0  0  0  0  0  0  0  0  0  0  0  0
   -9.4200    2.4524   26.2849 C   0  0  0  0  0  0  0  0  0  0  0  0
  -10.2590    3.4815   25.9250 C   0  0  0  0  0  0  0  0  0  0  0  0
   -8.3837    6.4702   27.0872 C   0  0  0  0  0  0  0  0  0  0  0  0
   -7.7610    6.8612   28.1191 N   0  0  0  0  0  0  0  0  0  0  0  0
   -8.6350    7.3321   26.1712 O   0  0  0  0  0  0  0  0  0  0  0  0
   -7.3571    1.7917   27.2828 F   0  0  0  0  0  0  0  0  0  0  0  0
  -11.5335    3.1895   25.1950 C   0  0  1  0  0  0  0  0  0  0  0  0
  -11.6264    3.1503   23.9782 N   0  0  0  0  0  0  0  0  0  0  0  0
  -10.7717    2.8196   23.1980 C   0  0  0  0  0  0  0  0  0  0  0  0
  -10.8671    2.9558   21.7200 C   0  0  0  0  0  0  0  0  0  0  0  0
  -12.5982    3.8586   23.1459 C   0  0  0  0  0  0  0  0  0  0  0  0
  -10.0598    2.5456   20.7565 C   0  0  0  0  0  0  0  0  0  0  0  0
  -12.1574    3.6775   21.8143 C   0  0  0  0  0  0  0  0  0  0  0  0
  -12.2153    1.9313   25.8203 C   0  0  0  0  0  0  0  0  0  0  0  0
  3  7  1  0
  7  8  1  0
  7  9  2  0
  2 10  1  0
  6 11  1  0
 11 12  1  0
 12 13  1  0
 13 14  2  0
 12 15  1  0
 14 16  1  0
 14 17  1  0
 15 17  2  0
 11 18  1  1
  1  2  2  0
  2  5  1  0
  5  6  2  0
  6  4  1  0
  4  3  2  0
  3  1  1  0
M  END
$$$$
