No_7344-complexes_sdf/6BKW-FPZ/2024-09-17-14-21-01/
     RDKit          3D

 11 11  0  0  0  0  0  0  0  0999 V2000
   -7.9040    3.9820   27.1177 C   0  0  0  0  0  0  0  0  0  0  0  0
   -9.0711    4.3164   27.0630 C   0  0  0  0  0  0  0  0  0  0  0  0
   -9.9692    3.7224   26.1073 C   0  0  0  0  0  0  0  0  0  0  0  0
   -7.4776    2.6994   26.6283 C   0  0  0  0  0  0  0  0  0  0  0  0
   -8.4406    1.9440   25.9776 C   0  0  0  0  0  0  0  0  0  0  0  0
   -9.6379    2.5001   25.6881 C   0  0  0  0  0  0  0  0  0  0  0  0
   -6.6532    4.8723   28.2888 Br  0  0  0  0  0  0  0  0  0  0  0  0
  -10.5964    1.7373   24.8201 C   0  0  0  0  0  0  0  0  0  0  0  0
  -10.9188    2.1873   23.6315 C   0  0  0  0  0  0  0  0  0  0  0  0
  -11.7981    1.4944   22.7411 C   0  0  0  0  0  0  0  0  0  0  0  0
  -12.1482    2.0313   21.4812 C   0  0  0  0  0  0  0  0  0  0  0  0
  1  7  1  0
  6  8  1  0
  8  9  2  3
  9 10  1  0
 10 11  2  0
  1  2  2  0
  2  3  1  0
  3  6  2  0
  6  5  1  0
  5  4  2  0
  4  1  1  0
M  END
$$$$
