No_7015-complexes_sdf/6BKW-FPZ/2024-09-17-14-21-01/
     RDKit          3D

 16 17  0  0  0  0  0  0  0  0999 V2000
   -7.2496    3.8871   27.4508 C   0  0  0  0  0  0  0  0  0  0  0  0
   -7.9379    4.9063   27.8518 C   0  0  0  0  0  0  0  0  0  0  0  0
   -9.3376    4.8647   27.7795 C   0  0  0  0  0  0  0  0  0  0  0  0
   -7.8544    2.6294   27.0414 C   0  0  0  0  0  0  0  0  0  0  0  0
   -9.2665    2.6175   27.0340 C   0  0  0  0  0  0  0  0  0  0  0  0
   -9.9836    3.7042   27.4150 C   0  0  0  0  0  0  0  0  0  0  0  0
   -6.9318    1.2933   26.7248 Cl  0  0  0  0  0  0  0  0  0  0  0  0
  -11.4546    3.6175   27.4549 C   0  0  0  0  0  0  0  0  0  0  0  0
  -12.3033    4.0692   26.8621 C   0  0  0  0  0  0  0  0  0  0  0  0
  -13.7196    4.1093   27.1141 C   0  0  0  0  0  0  0  0  0  0  0  0
  -11.9919    3.0611   28.7528 C   0  0  0  0  0  0  0  0  0  0  0  0
  -13.2548    2.9805   29.1636 C   0  0  0  0  0  0  0  0  0  0  0  0
  -14.1581    3.5669   28.2790 C   0  0  0  0  0  0  0  0  0  0  0  0
   -7.2910    6.0486   28.1673 O   0  0  0  0  0  0  0  0  0  0  0  0
  -13.6385    2.3885   30.2995 F   0  0  0  0  0  0  0  0  0  0  0  0
   -9.9440    1.0787   26.5542 Cl  0  0  0  0  0  0  0  0  0  0  0  0
  4  7  1  0
  6  8  1  0
  2 14  1  0
 12 15  1  0
  5 16  1  0
  8  9  2  0
  9 10  1  0
 10 13  2  0
 13 12  1  0
 12 11  2  0
 11  8  1  0
  1  2  2  0
  2  3  1  0
  3  6  2  0
  6  5  1  0
  5  4  2  0
  4  1  1  0
M  END
$$$$
