No_7615-complexes_sdf/6BKW-FPZ/2024-09-17-14-21-01/
     RDKit          3D

 27 31  0  0  0  0  0  0  0  0999 V2000
   -7.9040    3.9820   27.1177 C   0  0  0  0  0  0  0  0  0  0  0  0
   -7.8663    4.8694   27.9238 C   0  0  0  0  0  0  0  0  0  0  0  0
   -7.4698    2.6989   27.4277 C   0  0  0  0  0  0  0  0  0  0  0  0
   -7.9683    1.5964   26.8266 C   0  0  1  0  0  0  0  0  0  0  0  0
   -8.9447    1.7923   25.8533 C   0  0  1  0  0  0  0  0  0  0  0  0
   -9.4405    2.9988   25.5757 C   0  0  0  0  0  0  0  0  0  0  0  0
   -8.9424    4.1117   26.2388 C   0  0  0  0  0  0  0  0  0  0  0  0
   -8.2732    6.2141   27.6484 N   0  0  0  0  0  0  0  0  0  0  0  0
   -9.1790    6.5361   26.7045 C   0  0  0  0  0  0  0  0  0  0  0  0
   -9.5395    5.4021   25.9218 C   0  0  0  0  0  0  0  0  0  0  0  0
   -7.3870    0.2618   27.0958 C   0  0  2  0  0  0  0  0  0  0  0  0
   -6.0772    0.1276   27.5398 C   0  0  0  0  0  0  0  0  0  0  0  0
   -5.1986    1.0313   27.5210 C   0  0  0  0  0  0  0  0  0  0  0  0
   -3.8561    0.8560   28.1368 C   0  0  0  0  0  0  0  0  0  0  0  0
   -3.5769   -0.3711   28.6589 C   0  0  0  0  0  0  0  0  0  0  0  0
   -4.5308   -1.3652   28.6934 C   0  0  0  0  0  0  0  0  0  0  0  0
   -5.7914   -1.1392   28.1821 C   0  0  0  0  0  0  0  0  0  0  0  0
   -7.8058   -0.7072   26.0449 C   0  0  0  0  0  0  0  0  0  0  0  0
   -7.9476   -1.7206   26.2626 C   0  0  0  0  0  0  0  0  0  0  0  0
   -8.5302   -2.6024   25.7185 C   0  0  0  0  0  0  0  0  0  0  0  0
   -9.0512   -2.2730   24.4293 C   0  0  0  0  0  0  0  0  0  0  0  0
   -8.9095   -0.9695   24.0225 C   0  0  0  0  0  0  0  0  0  0  0  0
   -8.3395   -0.1009   24.8697 C   0  0  0  0  0  0  0  0  0  0  0  0
   -9.1344    0.8436   24.9347 N   0  0  0  0  0  0  0  0  0  0  0  0
  -10.3862    0.8993   24.2233 C   0  0  0  0  0  0  0  0  0  0  0  0
  -11.4341    1.4035   24.2665 C   0  0  0  0  0  0  0  0  0  0  0  0
  -10.0273    0.4180   22.8138 C   0  0  0  0  0  0  0  0  0  0  0  0
  1  3  1  0
  4  3  1  6
  4  5  1  0
  5  6  1  6
  6  7  1  0
  4 11  1  0
 11 12  1  6
 11 18  1  0
  5 24  1  0
 23 24  1  0
 24 25  1  0
 25 26  2  0
 25 27  1  0
 12 13  2  0
 13 14  1  0
 14 15  2  0
 15 16  1  0
 16 17  2  0
 17 12  1  0
  1  2  2  0
  2  8  1  0
  8  9  2  0
  9 10  1  0
 10  7  2  0
  7  1  1  0
 18 19  2  0
 19 20  1  0
 20 21  2  0
 21 22  1  0
 22 23  2  0
 23 18  1  0
M  END
$$$$
