No_7367-complexes_sdf/6BKW-FPZ/2024-09-17-14-21-01/
     RDKit          3D

 20 23  0  0  0  0  0  0  0  0999 V2000
   -7.2496    3.8871   27.4508 C   0  0  0  0  0  0  0  0  0  0  0  0
   -7.6161    2.7143   27.1523 C   0  0  0  0  0  0  0  0  0  0  0  0
   -8.6212    2.2239   26.4073 C   0  0  0  0  0  0  0  0  0  0  0  0
   -8.2540    4.9237   27.1711 C   0  0  0  0  0  0  0  0  0  0  0  0
   -9.3729    4.5806   26.4433 C   0  0  0  0  0  0  0  0  0  0  0  0
   -8.9159    0.9340   26.0822 C   0  0  0  0  0  0  0  0  0  0  0  0
   -9.6005    3.2666   26.0852 C   0  0  0  0  0  0  0  0  0  0  0  0
   -7.9109    6.3338   27.5235 C   0  0  0  0  0  0  0  0  0  0  0  0
   -9.2858    0.5611   24.9908 C   0  0  0  0  0  0  0  0  0  0  0  0
   -9.5456    1.5950   23.9676 C   0  0  1  0  0  0  0  0  0  0  0  0
  -10.0308    1.2991   22.6711 C   0  0  0  0  0  0  0  0  0  0  0  0
  -10.4239    2.3270   21.8165 C   0  0  0  0  0  0  0  0  0  0  0  0
  -10.4654    3.6551   22.3109 C   0  0  0  0  0  0  0  0  0  0  0  0
  -10.1686    3.9359   23.6219 C   0  0  0  0  0  0  0  0  0  0  0  0
   -9.8016    2.9707   24.4651 C   0  0  0  0  0  0  0  0  0  0  0  0
   -8.2117    7.3456   26.9451 N   0  0  0  0  0  0  0  0  0  0  0  0
   -6.9424    6.3944   28.4621 O   0  0  0  0  0  0  0  0  0  0  0  0
   -9.2790   -0.8228   24.4578 C   0  0  0  0  0  0  0  0  0  0  0  0
   -9.8492   -1.1303   23.4585 C   0  0  0  0  0  0  0  0  0  0  0  0
  -10.1052   -0.0584   22.2567 C   0  0  0  0  0  0  0  0  0  0  0  0
  1  2  2  0
  2  3  1  0
  1  4  1  0
  4  5  2  0
  3  6  1  0
  3  7  2  0
  5  7  1  0
  4  8  1  0
  6  9  2  0
  9 10  1  0
 10 11  1  0
 11 12  2  0
 12 13  1  0
 13 14  2  0
  7 15  1  0
 10 15  1  1
 14 15  1  0
  8 16  1  0
  8 17  2  0
  9 18  1  0
 18 19  2  0
 11 20  1  0
 19 20  1  0
M  END
$$$$
