No_7077-complexes_sdf/6BKW-FPZ/2024-09-17-14-21-01/
     RDKit          3D

 15 16  0  0  0  0  0  0  0  0999 V2000
   -7.9040    3.9820   27.1177 C   0  0  0  0  0  0  0  0  0  0  0  0
   -8.2057    2.8231   26.8733 C   0  0  0  0  0  0  0  0  0  0  0  0
   -9.3234    2.2125   27.0599 C   0  0  0  0  0  0  0  0  0  0  0  0
   -9.0146    4.9428   27.2420 C   0  0  0  0  0  0  0  0  0  0  0  0
  -10.2851    4.4096   27.2820 C   0  0  0  0  0  0  0  0  0  0  0  0
  -10.4907    3.0453   27.2378 C   0  0  0  0  0  0  0  0  0  0  0  0
   -8.7446    6.3752   27.3815 C   0  0  0  0  0  0  0  0  0  0  0  0
   -7.3837    6.8146   27.2851 C   0  0  0  0  0  0  0  0  0  0  0  0
   -9.5599    0.7271   26.9205 C   0  0  0  0  0  0  0  0  0  0  0  0
   -8.4768   -0.0158   27.0249 C   0  0  0  0  0  0  0  0  0  0  0  0
   -7.2512    0.6273   27.2803 C   0  0  0  0  0  0  0  0  0  0  0  0
   -6.9938    1.9838   27.1175 C   0  0  0  0  0  0  0  0  0  0  0  0
   -6.1077   -0.1956   27.2005 F   0  0  0  0  0  0  0  0  0  0  0  0
   -6.5448    6.1540   27.8224 F   0  0  0  0  0  0  0  0  0  0  0  0
   -7.1791    7.9382   26.7710 F   0  0  0  0  0  0  0  0  0  0  0  0
  4  7  1  0
  7  8  1  0
 11 13  1  0
  8 14  1  0
  8 15  1  0
  3  9  1  0
  9 10  2  0
 10 11  1  0
 11 12  2  0
 12  2  1  0
  1  2  2  0
  2  3  1  0
  3  6  2  0
  6  5  1  0
  5  4  2  0
  4  1  1  0
M  END
$$$$
