No_7674-complexes_sdf/6BKW-FPZ/2024-09-17-14-21-01/
     RDKit          3D

 24 27  0  0  0  0  0  0  0  0999 V2000
   -7.9040    3.9820   27.1177 C   0  0  0  0  0  0  0  0  0  0  0  0
   -7.8663    4.8694   27.9238 C   0  0  0  0  0  0  0  0  0  0  0  0
   -7.4547    2.7080   27.4594 C   0  0  0  0  0  0  0  0  0  0  0  0
   -7.9337    1.5946   26.8372 C   0  0  0  0  0  0  0  0  0  0  0  0
   -8.9032    1.7881   25.8510 C   0  0  0  0  0  0  0  0  0  0  0  0
   -9.3787    2.9871   25.5530 C   0  0  0  0  0  0  0  0  0  0  0  0
   -8.9781    4.0300   26.2200 C   0  0  0  0  0  0  0  0  0  0  0  0
   -7.9493    6.0343   27.8952 N   0  0  0  0  0  0  0  0  0  0  0  0
  -10.3836    3.1260   24.4284 C   0  0  0  0  0  0  0  0  0  0  0  0
  -10.5593    2.2317   23.4884 C   0  0  0  0  0  0  0  0  0  0  0  0
  -11.4386    2.4341   22.4544 C   0  0  0  0  0  0  0  0  0  0  0  0
  -12.1143    3.7026   22.3546 C   0  0  0  0  0  0  0  0  0  0  0  0
  -11.8993    4.6413   23.3201 C   0  0  0  0  0  0  0  0  0  0  0  0
  -11.0370    4.4739   24.3454 C   0  0  0  0  0  0  0  0  0  0  0  0
   -8.5542    6.6205   26.8413 C   0  0  0  0  0  0  0  0  0  0  0  0
   -9.1307    5.6139   25.9422 C   0  0  0  0  0  0  0  0  0  0  0  0
   -8.8167    7.8703   26.7182 N   0  0  0  0  0  0  0  0  0  0  0  0
   -7.3779    0.2291   27.0899 C   0  0  0  0  0  0  0  0  0  0  0  0
   -6.1136    0.0289   27.5209 C   0  0  0  0  0  0  0  0  0  0  0  0
   -5.1471    1.1602   27.6462 C   0  0  0  0  0  0  0  0  0  0  0  0
   -3.8310    0.8327   28.1509 C   0  0  0  0  0  0  0  0  0  0  0  0
   -3.6059   -0.3938   28.6954 C   0  0  0  0  0  0  0  0  0  0  0  0
   -4.5303   -1.4083   28.6317 C   0  0  0  0  0  0  0  0  0  0  0  0
   -5.7636   -1.1734   28.1273 C   0  0  0  0  0  0  0  0  0  0  0  0
  6  9  1  0
 15 17  1  0
  4 18  1  0
 18 19  1  0
  1  2  2  0
  2  8  1  0
  8 15  2  0
 15 16  1  0
 16  7  2  0
  9 10  2  0
 10 11  1  0
 11 12  2  0
 12 13  1  0
 13 14  2  0
 14  9  1  0
 19 20  2  0
 20 21  1  0
 21 22  2  0
 22 23  1  0
 23 24  2  0
 24 19  1  0
  1  3  1  0
  3  4  2  0
  4  5  1  0
  5  6  2  0
  6  7  1  0
  7  1  1  0
M  END
$$$$
