No_7787-complexes_sdf/6BKW-FPZ/2024-09-17-14-21-01/
     RDKit          3D

 19 21  0  0  0  0  0  0  0  0999 V2000
   -7.7129    4.2099   27.0854 C   0  0  0  0  0  0  0  0  0  0  0  0
   -8.9133    4.4736   27.0998 C   0  0  0  0  0  0  0  0  0  0  0  0
   -9.4643    5.5426   27.7628 C   0  0  0  0  0  0  0  0  0  0  0  0
   -7.2009    2.9448   26.6134 C   0  0  0  0  0  0  0  0  0  0  0  0
   -8.1365    1.9533   26.2981 C   0  0  0  0  0  0  0  0  0  0  0  0
   -9.4501    2.2651   26.2497 C   0  0  0  0  0  0  0  0  0  0  0  0
   -9.8615    3.4703   26.6763 C   0  0  0  0  0  0  0  0  0  0  0  0
   -7.5886    0.6540   25.9006 C   0  0  1  0  0  0  0  0  0  0  0  0
   -7.9335    0.1391   24.7880 N   0  0  0  0  0  0  0  0  0  0  0  0
   -7.2564   -0.7962   24.1385 C   0  0  0  0  0  0  0  0  0  0  0  0
   -6.1049   -1.2718   24.7595 C   0  0  0  0  0  0  0  0  0  0  0  0
   -5.7396   -0.8145   26.0264 C   0  0  0  0  0  0  0  0  0  0  0  0
   -6.4147    0.2607   26.5897 C   0  0  0  0  0  0  0  0  0  0  0  0
   -9.1082    0.4319   23.9849 C   0  0  0  0  0  0  0  0  0  0  0  0
  -10.3545    0.1821   24.4885 C   0  0  0  0  0  0  0  0  0  0  0  0
   -8.9688    0.3737   22.5654 C   0  0  0  0  0  0  0  0  0  0  0  0
  -11.4616    0.3353   23.7454 C   0  0  0  0  0  0  0  0  0  0  0  0
  -10.0572    0.6550   21.7796 C   0  0  0  0  0  0  0  0  0  0  0  0
  -11.3243    0.5372   22.3543 C   0  0  0  0  0  0  0  0  0  0  0  0
  8  5  1  6
  8  9  1  0
  9 10  1  0
 11 12  1  0
  8 13  1  0
  9 14  1  0
  3  2  1  0
 13 12  1  0
 11 10  1  0
 14 15  2  0
 15 17  1  0
 17 19  2  0
 19 18  1  0
 18 16  2  0
 16 14  1  0
  1  2  2  0
  2  7  1  0
  7  6  2  0
  6  5  1  0
  5  4  2  0
  4  1  1  0
M  END
$$$$
