No_7887-complexes_sdf/6BKW-FPZ/2024-09-17-14-21-01/
     RDKit          3D

 19 20  0  0  0  0  0  0  0  0999 V2000
   -7.7129    4.2099   27.0854 C   0  0  0  0  0  0  0  0  0  0  0  0
   -8.2112    3.0637   26.9225 C   0  0  0  0  0  0  0  0  0  0  0  0
   -7.5138    1.9223   27.4249 C   0  0  0  0  0  0  0  0  0  0  0  0
   -8.5309    5.4147   26.8151 C   0  0  0  0  0  0  0  0  0  0  0  0
   -9.6817    5.2393   26.1100 C   0  0  0  0  0  0  0  0  0  0  0  0
  -10.1032    3.9957   25.8534 C   0  0  0  0  0  0  0  0  0  0  0  0
   -9.4035    2.8430   26.2573 C   0  0  0  0  0  0  0  0  0  0  0  0
   -6.8643    1.0176   26.6720 C   0  0  0  0  0  0  0  0  0  0  0  0
   -6.0028    0.0950   27.2696 C   0  0  0  0  0  0  0  0  0  0  0  0
   -6.3512   -1.1755   27.3878 C   0  0  0  0  0  0  0  0  0  0  0  0
   -8.0563    7.1760   27.1626 Br  0  0  0  0  0  0  0  0  0  0  0  0
   -7.3305   -1.6476   26.5033 C   0  0  0  0  0  0  0  0  0  0  0  0
   -8.0015   -0.8346   25.6457 C   0  0  0  0  0  0  0  0  0  0  0  0
   -8.9467   -1.2266   24.7106 C   0  0  0  0  0  0  0  0  0  0  0  0
   -7.7266    0.5475   25.7376 C   0  0  0  0  0  0  0  0  0  0  0  0
  -10.2159   -1.4349   25.0562 C   0  0  0  0  0  0  0  0  0  0  0  0
  -10.5875   -1.2981   26.3981 C   0  0  0  0  0  0  0  0  0  0  0  0
  -12.0095   -1.3954   26.8406 C   0  0  0  0  0  0  0  0  0  0  0  0
  -12.9006   -1.6556   25.8373 C   0  0  0  0  0  0  0  0  0  0  0  0
  2  3  1  0
  3  8  1  0
  4 11  1  0
 13 14  1  0
 14 16  2  3
 16 17  1  0
 17 18  2  3
 18 19  1  0
  1  2  2  0
  2  7  1  0
  7  6  2  0
  6  5  1  0
  5  4  2  0
  4  1  1  0
  8  9  2  0
  9 10  1  0
 10 12  2  0
 12 13  1  0
 13 15  2  0
 15  8  1  0
M  END
$$$$
