No_7499-complexes_sdf/6BKW-FPZ/2024-09-17-14-21-01/
     RDKit          3D

 24 28  0  0  0  0  0  0  0  0999 V2000
   -7.7129    4.2099   27.0854 C   0  0  0  0  0  0  0  0  0  0  0  0
   -7.7814    5.1722   27.8972 C   0  0  0  0  0  0  0  0  0  0  0  0
   -8.8255    3.2789   27.1191 C   0  0  0  0  0  0  0  0  0  0  0  0
   -9.9209    3.4734   27.9101 C   0  0  0  0  0  0  0  0  0  0  0  0
   -9.9736    4.7085   28.6831 C   0  0  0  0  0  0  0  0  0  0  0  0
   -8.8840    5.5441   28.6612 C   0  0  0  0  0  0  0  0  0  0  0  0
   -8.5122    2.0593   26.2511 C   0  0  0  0  0  0  0  0  0  0  0  0
   -9.2130    1.0637   26.2954 C   0  0  0  0  0  0  0  0  0  0  0  0
  -10.3107    0.8817   26.5886 C   0  0  0  0  0  0  0  0  0  0  0  0
  -10.9940   -0.3113   26.3699 C   0  0  0  0  0  0  0  0  0  0  0  0
  -10.2627   -1.3974   25.9905 C   0  0  0  0  0  0  0  0  0  0  0  0
   -8.6755   -0.2561   25.7058 C   0  0  0  0  0  0  0  0  0  0  0  0
   -9.1421   -1.3614   25.5746 C   0  0  0  0  0  0  0  0  0  0  0  0
  -12.3445   -0.5358   26.9574 N   0  0  0  0  0  0  0  0  0  0  0  0
  -12.8215    0.0591   27.8396 C   0  0  0  0  0  0  0  0  0  0  0  0
  -12.3370    1.0829   28.2045 C   0  0  0  0  0  0  0  0  0  0  0  0
  -10.9918    1.5816   27.7800 C   0  0  2  0  0  0  0  0  0  0  0  0
  -10.8406    2.4663   28.0525 N   0  0  0  0  0  0  0  0  0  0  0  0
  -12.9828   -1.7862   26.2955 C   0  0  0  0  0  0  0  0  0  0  0  0
  -14.3269   -1.6223   26.2196 C   0  0  0  0  0  0  0  0  0  0  0  0
  -14.9740   -2.5607   25.6333 C   0  0  0  0  0  0  0  0  0  0  0  0
  -14.2927   -3.6811   25.0875 C   0  0  0  0  0  0  0  0  0  0  0  0
  -12.9563   -3.7743   25.1751 C   0  0  0  0  0  0  0  0  0  0  0  0
  -12.2391   -2.7702   25.7971 C   0  0  0  0  0  0  0  0  0  0  0  0
  3  7  1  0
  7  8  1  0
 10 14  1  0
 14 15  1  0
  9 17  1  0
 17 16  1  6
  4 18  1  0
 17 18  1  0
 14 19  1  0
 16 15  1  0
  1  2  2  0
  2  6  1  0
  6  5  2  0
  5  4  1  0
  4  3  2  0
  3  1  1  0
 19 20  2  0
 20 21  1  0
 21 22  2  0
 22 23  1  0
 23 24  2  0
 24 19  1  0
  8  9  2  0
  9 10  1  0
 10 11  2  0
 11 13  1  0
 13 12  2  0
 12  8  1  0
M  END
$$$$
