No_7688-complexes_sdf/6BKW-FPZ/2024-09-17-14-21-01/
     RDKit          3D

 25 29  0  0  0  0  0  0  0  0999 V2000
   -7.9040    3.9820   27.1177 C   0  0  0  0  0  0  0  0  0  0  0  0
   -7.8663    4.8694   27.9238 C   0  0  0  0  0  0  0  0  0  0  0  0
   -7.4698    2.6989   27.4277 C   0  0  0  0  0  0  0  0  0  0  0  0
   -7.9683    1.5964   26.8266 C   0  0  0  0  0  0  0  0  0  0  0  0
   -8.9447    1.7923   25.8533 C   0  0  0  0  0  0  0  0  0  0  0  0
   -9.4405    2.9988   25.5757 C   0  0  2  0  0  0  0  0  0  0  0  0
  -10.4397    3.2630   24.6146 C   0  0  0  0  0  0  0  0  0  0  0  0
   -8.9100    4.1245   26.1959 C   0  0  0  0  0  0  0  0  0  0  0  0
   -8.1498    6.2592   27.6587 N   0  0  0  0  0  0  0  0  0  0  0  0
   -9.1628    6.6323   26.8618 C   0  0  0  0  0  0  0  0  0  0  0  0
   -9.5241    5.4416   25.9620 C   0  0  0  0  0  0  0  0  0  0  0  0
  -10.0870    3.5321   23.2966 C   0  0  0  0  0  0  0  0  0  0  0  0
  -11.7644    3.1501   24.9526 C   0  0  0  0  0  0  0  0  0  0  0  0
  -10.9456    3.8381   22.2743 C   0  0  0  0  0  0  0  0  0  0  0  0
  -12.7807    3.5153   23.9471 C   0  0  0  0  0  0  0  0  0  0  0  0
  -12.3499    3.8436   22.6544 C   0  0  0  0  0  0  0  0  0  0  0  0
   -7.4115    0.2274   27.0144 C   0  0  0  0  0  0  0  0  0  0  0  0
   -6.0852    0.1093   27.5161 C   0  0  0  0  0  0  0  0  0  0  0  0
   -5.5553   -1.1251   27.8501 C   0  0  0  0  0  0  0  0  0  0  0  0
   -4.2347   -1.1017   28.4212 C   0  0  0  0  0  0  0  0  0  0  0  0
   -3.6539   -0.0063   28.6775 C   0  0  0  0  0  0  0  0  0  0  0  0
   -4.1751    1.2596   28.4098 C   0  0  0  0  0  0  0  0  0  0  0  0
   -5.3855    1.3035   27.8854 C   0  0  0  0  0  0  0  0  0  0  0  0
   -6.0965    2.5507   27.7601 N   0  0  0  0  0  0  0  0  0  0  0  0
   -9.5575    0.7930   25.2393 O   0  0  0  0  0  0  0  0  0  0  0  0
  1  3  1  0
  4  5  1  0
  5  6  1  0
  6  7  1  6
  6  8  1  0
  5 25  2  0
 18 19  1  0
 19 20  2  0
 20 21  1  0
 21 22  2  0
 22 23  1  0
  7 12  2  0
 12 14  1  0
 14 16  2  0
 16 15  1  0
 15 13  2  0
 13  7  1  0
  3  4  2  0
  4 17  1  0
 17 18  2  0
 18 23  1  0
 23 24  2  0
 24  3  1  0
  1  2  2  0
  2  9  1  0
  9 10  2  0
 10 11  1  0
 11  8  2  0
  8  1  1  0
M  END
$$$$
