No_7512-complexes_sdf/6BKW-FPZ/2024-09-17-14-21-01/
     RDKit          3D

 21 23  0  0  0  0  0  0  0  0999 V2000
   -7.7129    4.2099   27.0854 C   0  0  0  0  0  0  0  0  0  0  0  0
   -8.2112    3.0637   26.9225 C   0  0  0  0  0  0  0  0  0  0  0  0
   -8.4224    5.2106   27.8516 C   0  0  0  0  0  0  0  0  0  0  0  0
   -9.5628    2.7160   27.4089 C   0  0  0  0  0  0  0  0  0  0  0  0
  -10.2428    3.7496   28.1155 C   0  0  0  0  0  0  0  0  0  0  0  0
   -9.6677    4.9738   28.3232 C   0  0  0  0  0  0  0  0  0  0  0  0
  -11.6117    3.4528   28.6312 C   0  0  0  0  0  0  0  0  0  0  0  0
  -12.5347    4.3440   28.7806 C   0  0  0  0  0  0  0  0  0  0  0  0
  -11.8460    2.0837   29.0498 C   0  0  0  0  0  0  0  0  0  0  0  0
  -13.8135    4.0678   29.2252 C   0  0  0  0  0  0  0  0  0  0  0  0
  -13.1357    1.7725   29.5227 C   0  0  0  0  0  0  0  0  0  0  0  0
  -14.0764    2.7655   29.6205 C   0  0  0  0  0  0  0  0  0  0  0  0
   -7.8886    6.4180   27.9893 F   0  0  0  0  0  0  0  0  0  0  0  0
   -7.5571    2.0354   26.3487 O   0  0  0  0  0  0  0  0  0  0  0  0
   -8.2645    0.9927   25.8217 C   0  0  0  0  0  0  0  0  0  0  0  0
   -9.0537    1.1116   24.7856 C   0  0  0  0  0  0  0  0  0  0  0  0
   -9.4025    0.1756   23.9562 C   0  0  0  0  0  0  0  0  0  0  0  0
  -10.2748    0.4445   22.7846 C   0  0  0  0  0  0  0  0  0  0  0  0
  -10.7894    1.7329   22.6141 C   0  0  0  0  0  0  0  0  0  0  0  0
  -10.4524    2.7384   23.4782 C   0  0  0  0  0  0  0  0  0  0  0  0
   -9.6367    2.5377   24.5410 C   0  0  0  0  0  0  0  0  0  0  0  0
  5  7  1  0
  3 13  1  0
  2 14  1  0
 14 15  1  0
 15 16  1  0
  1  2  2  0
  2  4  1  0
  4  5  2  0
  5  6  1  0
  6  3  2  0
  3  1  1  0
  7  8  2  0
  8 10  1  0
 10 12  2  0
 12 11  1  0
 11  9  2  0
  9  7  1  0
 16 17  2  0
 17 18  1  0
 18 19  2  0
 19 20  1  0
 20 21  2  0
 21 16  1  0
M  END
$$$$
