No_7106-complexes_sdf/6BKW-FPZ/2024-09-17-14-21-01/
     RDKit          3D

 32 36  0  0  0  0  0  0  0  0999 V2000
   -7.9040    3.9820   27.1177 C   0  0  0  0  0  0  0  0  0  0  0  0
   -8.2057    2.8231   26.8733 C   0  0  0  0  0  0  0  0  0  0  0  0
   -7.4766    1.7477   27.4593 C   0  0  0  0  0  0  0  0  0  0  0  0
   -8.7468    5.1251   26.6967 C   0  0  0  0  0  0  0  0  0  0  0  0
   -9.7234    4.8589   25.8202 C   0  0  0  0  0  0  0  0  0  0  0  0
   -9.9711    3.5858   25.4266 C   0  0  0  0  0  0  0  0  0  0  0  0
   -9.2266    2.4957   25.9600 C   0  0  0  0  0  0  0  0  0  0  0  0
   -6.1241    1.9216   27.8574 C   0  0  0  0  0  0  0  0  0  0  0  0
   -5.3476    0.8215   28.3513 C   0  0  0  0  0  0  0  0  0  0  0  0
   -5.8615   -0.4216   28.3746 C   0  0  0  0  0  0  0  0  0  0  0  0
   -8.0287    0.4531   27.6463 C   0  0  0  0  0  0  0  0  0  0  0  0
   -7.2529   -0.6002   28.0718 C   0  0  0  0  0  0  0  0  0  0  0  0
   -8.4178    6.5163   27.1015 C   0  0  0  0  0  0  0  0  0  0  0  0
   -7.9336    7.5909   27.0597 N   0  0  0  0  0  0  0  0  0  0  0  0
   -3.9015    1.0932   28.6873 C   0  0  0  0  0  0  0  0  0  0  0  0
   -3.3049    0.0713   29.4683 C   0  0  0  0  0  0  0  0  0  0  0  0
   -3.9036   -1.1935   29.6241 C   0  0  0  0  0  0  0  0  0  0  0  0
   -5.1758   -1.4411   29.1281 C   0  0  0  0  0  0  0  0  0  0  0  0
   -3.1343   -2.2386   30.3189 C   0  0  1  0  0  0  0  0  0  0  0  0
   -3.6758   -2.7037   31.4149 C   0  0  0  0  0  0  0  0  0  0  0  0
   -4.6073   -2.1969   32.0629 C   0  0  0  0  0  0  0  0  0  0  0  0
   -5.1166   -2.2824   33.2028 C   0  0  0  0  0  0  0  0  0  0  0  0
   -4.4680   -3.1206   34.1163 C   0  0  0  0  0  0  0  0  0  0  0  0
   -3.3424   -3.7986   33.6044 C   0  0  0  0  0  0  0  0  0  0  0  0
   -2.8304   -3.4862   32.4215 C   0  0  0  0  0  0  0  0  0  0  0  0
   -1.9397   -2.6813   29.7101 C   0  0  0  0  0  0  0  0  0  0  0  0
   -1.4737   -3.5875   29.1879 C   0  0  0  0  0  0  0  0  0  0  0  0
   -2.4352   -4.6577   28.7822 C   0  0  0  0  0  0  0  0  0  0  0  0
   -1.9985   -5.8091   28.1438 C   0  0  0  0  0  0  0  0  0  0  0  0
   -0.1393   -3.9308   28.8508 C   0  0  0  0  0  0  0  0  0  0  0  0
    0.3048   -5.0521   28.2008 C   0  0  0  0  0  0  0  0  0  0  0  0
   -0.6758   -6.0071   27.8701 C   0  0  0  0  0  0  0  0  0  0  0  0
  2  3  1  0
  4 13  1  0
 13 14  3  0
 17 19  1  0
 19 20  1  0
 19 26  1  6
 26 27  1  0
  1  2  2  0
  2  7  1  0
  7  6  2  0
  6  5  1  0
  5  4  2  0
  4  1  1  0
 10 18  2  0
 18 17  1  0
 17 16  2  0
 16 15  1  0
 15  9  2  0
  3  8  2  0
  8  9  1  0
  9 10  1  0
 10 12  1  0
 12 11  2  0
 11  3  1  0
 20 21  2  0
 21 22  1  0
 22 23  2  0
 23 24  1  0
 24 25  2  0
 25 20  1  0
 27 28  2  0
 28 29  1  0
 29 32  2  0
 32 31  1  0
 31 30  2  0
 30 27  1  0
M  END
$$$$
