No_7347-complexes_sdf/6BKW-FPZ/2024-09-17-14-21-01/
     RDKit          3D

 21 23  0  0  0  0  0  0  0  0999 V2000
   -7.9040    3.9820   27.1177 C   0  0  0  0  0  0  0  0  0  0  0  0
   -7.8663    4.8694   27.9238 C   0  0  0  0  0  0  0  0  0  0  0  0
   -9.0491    3.8523   26.2542 C   0  0  0  0  0  0  0  0  0  0  0  0
   -8.7661    5.9491   27.9690 C   0  0  0  0  0  0  0  0  0  0  0  0
   -9.9279    4.8544   26.1938 C   0  0  0  0  0  0  0  0  0  0  0  0
   -9.8044    5.9413   27.0782 C   0  0  0  0  0  0  0  0  0  0  0  0
   -6.9528    2.5643   27.1051 Cl  0  0  0  0  0  0  0  0  0  0  0  0
   -9.1473    2.7344   25.2490 C   0  0  0  0  0  0  0  0  0  0  0  0
  -10.2583    2.0868   25.4220 C   0  0  0  0  0  0  0  0  0  0  0  0
  -10.4720    1.0536   24.5382 C   0  0  0  0  0  0  0  0  0  0  0  0
  -11.6674    0.3488   24.6608 C   0  0  0  0  0  0  0  0  0  0  0  0
  -11.3914    2.2252   26.2648 C   0  0  0  0  0  0  0  0  0  0  0  0
  -12.4383    1.5214   26.4462 C   0  0  0  0  0  0  0  0  0  0  0  0
  -12.5964    0.4818   25.5642 C   0  0  0  0  0  0  0  0  0  0  0  0
  -13.8159   -0.6811   25.5345 Cl  0  0  0  0  0  0  0  0  0  0  0  0
   -9.5310    0.7627   23.4649 C   0  0  0  0  0  0  0  0  0  0  0  0
   -9.6370    1.1967   22.1486 C   0  0  0  0  0  0  0  0  0  0  0  0
   -8.4050   -0.0690   23.7780 C   0  0  0  0  0  0  0  0  0  0  0  0
   -7.4875   -0.4661   22.8088 C   0  0  0  0  0  0  0  0  0  0  0  0
   -8.7199    0.7403   21.1266 C   0  0  0  0  0  0  0  0  0  0  0  0
   -7.6822   -0.0672   21.4987 C   0  0  0  0  0  0  0  0  0  0  0  0
  1  7  1  0
  3  8  1  0
  8  9  1  0
 14 15  1  0
 10 16  1  0
  9 10  1  0
 10 11  2  0
 11 14  1  0
 14 13  2  0
 13 12  1  0
 12  9  2  0
  1  2  2  0
  2  4  1  0
  4  6  2  0
  6  5  1  0
  5  3  2  0
  3  1  1  0
 16 17  2  0
 17 20  1  0
 20 21  2  0
 21 19  1  0
 19 18  2  0
 18 16  1  0
M  END
$$$$
