No_7381-complexes_sdf/6BKW-FPZ/2024-09-17-14-21-01/
     RDKit          3D

  9  9  0  0  0  0  0  0  0  0999 V2000
   -7.9040    3.9820   27.1177 C   0  0  0  0  0  0  0  0  0  0  0  0
   -7.8663    4.8694   27.9238 C   0  0  0  0  0  0  0  0  0  0  0  0
   -9.0491    3.8523   26.2542 C   0  0  0  0  0  0  0  0  0  0  0  0
   -9.4067    2.6808   25.6532 C   0  0  0  0  0  0  0  0  0  0  0  0
   -8.5275    6.1191   27.7061 C   0  0  0  0  0  0  0  0  0  0  0  0
   -8.8735    1.4981   26.1333 C   0  0  0  0  0  0  0  0  0  0  0  0
   -9.1976    0.2885   25.4991 C   0  0  0  0  0  0  0  0  0  0  0  0
   -9.5458    6.2098   26.7908 C   0  0  0  0  0  0  0  0  0  0  0  0
   -9.8003    5.0291   26.0617 C   0  0  0  0  0  0  0  0  0  0  0  0
  3  4  1  0
  4  6  2  3
  6  7  1  0
  1  2  2  0
  2  5  1  0
  5  8  2  0
  8  9  1  0
  9  3  2  0
  3  1  1  0
M  END
$$$$
