No_79-complexes_sdf/6BKW-FPZ/2024-09-17-14-21-01/
     RDKit          3D

 17 18  0  0  0  0  0  0  0  0999 V2000
   -7.7129    4.2099   27.0854 C   0  0  0  0  0  0  0  0  0  0  0  0
   -7.7814    5.1722   27.8972 C   0  0  0  0  0  0  0  0  0  0  0  0
   -8.8998    3.8713   26.3707 C   0  0  0  0  0  0  0  0  0  0  0  0
   -8.9563    2.6796   25.5490 C   0  0  0  0  0  0  0  0  0  0  0  0
   -8.8131    6.1334   27.9344 C   0  0  0  0  0  0  0  0  0  0  0  0
   -9.9804    5.8121   27.1929 C   0  0  0  0  0  0  0  0  0  0  0  0
   -9.9861    4.6836   26.4532 C   0  0  0  0  0  0  0  0  0  0  0  0
   -9.7347    1.7154   26.0600 C   0  0  0  0  0  0  0  0  0  0  0  0
   -9.4976    0.4871   25.7004 C   0  0  0  0  0  0  0  0  0  0  0  0
  -10.1937   -0.6091   26.3049 C   0  0  0  0  0  0  0  0  0  0  0  0
  -11.1577   -0.3038   27.3146 C   0  0  0  0  0  0  0  0  0  0  0  0
  -11.3431    0.9831   27.7384 C   0  0  0  0  0  0  0  0  0  0  0  0
  -10.6009    2.0197   27.2149 C   0  0  0  0  0  0  0  0  0  0  0  0
   -8.5720    0.0734   24.6430 C   0  0  1  0  0  0  0  0  0  0  0  0
   -8.9793    0.1272   23.2594 C   0  0  0  0  0  0  0  0  0  0  0  0
   -7.2216   -0.3035   24.9200 C   0  0  0  0  0  0  0  0  0  0  0  0
   -6.7505   -0.1780   26.0887 O   0  0  0  0  0  0  0  0  0  0  0  0
  3  4  1  0
  4  8  1  0
  9 14  1  0
 14 15  1  6
 14 16  1  0
 16 17  1  0
  8  9  2  0
  9 10  1  0
 10 11  2  0
 11 12  1  0
 12 13  2  0
 13  8  1  0
  1  2  2  0
  2  5  1  0
  5  6  2  0
  6  7  1  0
  7  3  2  0
  3  1  1  0
M  END
$$$$
