No_7515-complexes_sdf/6BKW-FPZ/2024-09-17-14-21-01/
     RDKit          3D

 22 23  0  0  0  0  0  0  0  0999 V2000
   -7.2496    3.8871   27.4508 C   0  0  0  0  0  0  0  0  0  0  0  0
   -7.6161    2.7143   27.1523 C   0  0  0  0  0  0  0  0  0  0  0  0
   -6.9719    1.5838   27.5324 C   0  0  0  0  0  0  0  0  0  0  0  0
   -7.4590    0.2827   27.2615 C   0  0  0  0  0  0  0  0  0  0  0  0
   -8.7521    2.5117   26.3068 C   0  0  0  0  0  0  0  0  0  0  0  0
   -9.2100    1.2391   25.9794 C   0  0  0  0  0  0  0  0  0  0  0  0
   -8.5134    0.1313   26.5112 C   0  0  0  0  0  0  0  0  0  0  0  0
   -8.0469    5.0686   27.1938 C   0  0  0  0  0  0  0  0  0  0  0  0
   -9.1378    5.0394   26.3144 C   0  0  0  0  0  0  0  0  0  0  0  0
   -9.5691    3.6875   25.9223 C   0  0  0  0  0  0  0  0  0  0  0  0
   -7.5885    6.4082   27.6888 C   0  0  0  0  0  0  0  0  0  0  0  0
   -6.7128   -0.8852   27.8531 C   0  0  0  0  0  0  0  0  0  0  0  0
   -7.3698   -1.8502   28.5291 C   0  0  0  0  0  0  0  0  0  0  0  0
   -8.7938   -1.7462   28.7312 C   0  0  0  0  0  0  0  0  0  0  0  0
   -9.5396   -0.9825   27.7463 C   0  0  0  0  0  0  0  0  0  0  0  0
  -10.7555   -0.7633   27.5257 C   0  0  0  0  0  0  0  0  0  0  0  0
   -8.8212   -1.0431   27.0524 Br  0  0  0  0  0  0  0  0  0  0  0  0
   -7.4506   -0.1684   25.2467 C   0  0  0  0  0  0  0  0  0  0  0  0
   -8.2939    7.4836   27.2544 N   0  0  0  0  0  0  0  0  0  0  0  0
  -11.4356   -0.0861   28.5964 C   0  0  0  0  0  0  0  0  0  0  0  0
  -12.4346    0.6097   28.5379 C   0  0  0  0  0  0  0  0  0  0  0  0
  -12.9153    1.4390   29.6145 C   0  0  0  0  0  0  0  0  0  0  0  0
  8 11  1  0
  4 12  1  0
 12 13  2  3
 13 14  1  0
 14 15  2  3
 15 16  1  0
 15 17  1  0
  7 18  1  0
 11 19  2  0
 16 20  1  0
 20 21  2  3
 21 22  1  0
  1  2  2  0
  5 10  2  0
 10  9  1  0
  9  8  2  0
  8  1  1  0
  2  3  1  0
  3  4  2  0
  4  7  1  0
  7  6  2  0
  6  5  1  0
  5  2  1  0
M  END
$$$$
