No_7571-complexes_sdf/6BKW-FPZ/2024-09-17-14-21-01/
     RDKit          3D

 21 23  0  0  0  0  0  0  0  0999 V2000
   -7.9040    3.9820   27.1177 C   0  0  0  0  0  0  0  0  0  0  0  0
   -7.8663    4.8694   27.9238 C   0  0  0  0  0  0  0  0  0  0  0  0
   -7.4698    2.6989   27.4277 C   0  0  0  0  0  0  0  0  0  0  0  0
   -7.9683    1.5964   26.8266 C   0  0  0  0  0  0  0  0  0  0  0  0
   -8.9447    1.7923   25.8533 C   0  0  0  0  0  0  0  0  0  0  0  0
   -9.4405    2.9988   25.5757 C   0  0  0  0  0  0  0  0  0  0  0  0
   -8.9424    4.1117   26.2388 C   0  0  0  0  0  0  0  0  0  0  0  0
   -8.0991    6.0941   27.8047 N   0  0  0  0  0  0  0  0  0  0  0  0
   -7.2681    0.3417   27.2250 C   0  0  0  0  0  0  0  0  0  0  0  0
   -6.0093    0.2850   27.6323 C   0  0  0  0  0  0  0  0  0  0  0  0
   -5.3608   -0.7183   27.9122 C   0  0  0  0  0  0  0  0  0  0  0  0
   -5.9947   -1.9385   27.9450 C   0  0  0  0  0  0  0  0  0  0  0  0
   -7.8528   -0.9143   27.1825 C   0  0  0  0  0  0  0  0  0  0  0  0
   -7.2997   -1.9984   27.5636 C   0  0  0  0  0  0  0  0  0  0  0  0
   -9.4715    5.3958   25.9659 C   0  0  0  0  0  0  0  0  0  0  0  0
   -9.0292    6.4461   26.7729 C   0  0  0  0  0  0  0  0  0  0  0  0
   -3.8928   -0.6255   28.4307 C   0  0  1  0  0  0  0  0  0  0  0  0
   -2.8896   -1.2698   27.7407 C   0  0  0  0  0  0  0  0  0  0  0  0
   -3.5860    0.2548   29.5455 C   0  0  0  0  0  0  0  0  0  0  0  0
   -3.7783    1.4245   29.5346 F   0  0  0  0  0  0  0  0  0  0  0  0
   -4.0606   -0.3485   30.7699 F   0  0  0  0  0  0  0  0  0  0  0  0
  4  9  1  0
 11 17  1  0
 17 18  1  6
 17 19  1  0
 19 20  1  0
 19 21  1  0
  1  2  2  0
  2  8  1  0
  8 16  2  0
 16 15  1  0
 15  7  2  0
  9 10  2  0
 10 11  1  0
 11 12  2  0
 12 14  1  0
 14 13  2  0
 13  9  1  0
  1  3  1  0
  3  4  2  0
  4  5  1  0
  5  6  2  0
  6  7  1  0
  7  1  1  0
M  END
$$$$
