No_7804-complexes_sdf/6BKW-FPZ/2024-09-17-14-21-01/
     RDKit          3D

 25 27  0  0  0  0  0  0  0  0999 V2000
   -7.7129    4.2099   27.0854 C   0  0  0  0  0  0  0  0  0  0  0  0
   -8.9133    4.4736   27.0998 C   0  0  0  0  0  0  0  0  0  0  0  0
   -9.7937    3.7367   26.2091 C   0  0  0  0  0  0  0  0  0  0  0  0
   -7.2496    2.8647   26.8496 C   0  0  0  0  0  0  0  0  0  0  0  0
   -8.1891    1.9790   26.3454 C   0  0  0  0  0  0  0  0  0  0  0  0
  -11.0808    4.1954   25.9087 C   0  0  0  0  0  0  0  0  0  0  0  0
   -9.4405    2.4420   25.9289 C   0  0  0  0  0  0  0  0  0  0  0  0
  -11.3803    4.5482   24.6216 C   0  0  0  0  0  0  0  0  0  0  0  0
  -12.6683    4.7057   24.0765 C   0  0  0  0  0  0  0  0  0  0  0  0
  -13.7634    4.6456   25.0084 C   0  0  0  0  0  0  0  0  0  0  0  0
  -12.1876    4.0742   26.7690 C   0  0  0  0  0  0  0  0  0  0  0  0
  -13.4716    4.3643   26.3695 C   0  0  0  0  0  0  0  0  0  0  0  0
   -9.3034    5.9557   27.3189 C   0  0  0  0  0  0  0  0  0  0  0  0
   -7.7574    0.6016   25.9993 C   0  0  0  0  0  0  0  0  0  0  0  0
   -8.5032   -0.3529   26.4403 O   0  0  0  0  0  0  0  0  0  0  0  0
   -9.2725   -0.2962   27.4153 C   0  0  0  0  0  0  0  0  0  0  0  0
  -10.5727   -0.0235   27.3299 C   0  0  0  0  0  0  0  0  0  0  0  0
  -11.3869    0.1055   28.5054 C   0  0  0  0  0  0  0  0  0  0  0  0
  -11.3317   -0.6858   26.3013 C   0  0  0  0  0  0  0  0  0  0  0  0
  -12.7044   -0.4271   26.1100 C   0  0  0  0  0  0  0  0  0  0  0  0
  -12.7740    0.4588   28.4763 C   0  0  0  0  0  0  0  0  0  0  0  0
  -13.2949    0.3758   27.3576 C   0  0  0  0  0  0  0  0  0  0  0  0
  -13.4278    1.0570   29.6119 C   0  0  0  0  0  0  0  0  0  0  0  0
  -13.1346    2.0110   30.1003 O   0  0  0  0  0  0  0  0  0  0  0  0
  -14.4284    0.3280   30.0827 O   0  0  0  0  0  0  0  0  0  0  0  0
  3  6  1  0
  2 13  1  0
  5 14  1  0
 14 15  1  0
 15 16  1  0
 16 17  1  0
 21 23  1  0
 23 24  2  0
 23 25  1  0
 17 18  2  0
 18 21  1  0
 21 22  2  0
 22 20  1  0
 20 19  2  0
 19 17  1  0
  1  2  2  0
  2  3  1  0
  3  7  2  0
  7  5  1  0
  5  4  2  0
  4  1  1  0
  6  8  2  0
  8  9  1  0
  9 10  2  0
 10 12  1  0
 12 11  2  0
 11  6  1  0
M  END
$$$$
