No_7282-complexes_sdf/6BKW-FPZ/2024-09-17-14-21-01/
     RDKit          3D

 14 15  0  0  0  0  0  0  0  0999 V2000
   -7.9040    3.9820   27.1177 C   0  0  0  0  0  0  0  0  0  0  0  0
   -9.0711    4.3164   27.0630 C   0  0  0  0  0  0  0  0  0  0  0  0
   -9.5182    5.5541   27.5777 C   0  0  0  0  0  0  0  0  0  0  0  0
   -6.9424    4.7983   27.8424 C   0  0  0  0  0  0  0  0  0  0  0  0
   -7.3526    5.9739   28.3909 C   0  0  0  0  0  0  0  0  0  0  0  0
   -8.6479    6.3742   28.2169 C   0  0  0  0  0  0  0  0  0  0  0  0
   -9.9331    3.3424   26.2519 C   0  0  0  0  0  0  0  0  0  0  0  0
   -9.6115    2.2160   25.9288 C   0  0  0  0  0  0  0  0  0  0  0  0
   -8.2024    1.8164   26.2709 C   0  0  0  0  0  0  0  0  0  0  0  0
   -7.4178    2.6741   26.8428 N   0  0  0  0  0  0  0  0  0  0  0  0
   -7.6909    0.5064   25.9150 C   0  0  0  0  0  0  0  0  0  0  0  0
   -6.8609   -0.0170   26.6437 O   0  0  0  0  0  0  0  0  0  0  0  0
   -6.8249   -1.0982   27.1765 C   0  0  0  0  0  0  0  0  0  0  0  0
   -5.8520   -1.4016   28.1501 C   0  0  0  0  0  0  0  0  0  0  0  0
  9 11  1  0
 11 12  1  0
 12 13  1  0
 13 14  2  0
  2  7  1  0
  7  8  2  0
  8  9  1  0
  9 10  2  0
 10  1  1  0
  1  2  1  0
  2  3  2  0
  3  6  1  0
  6  5  2  0
  5  4  1  0
  4  1  2  0
M  END
$$$$
