No_7208-complexes_sdf/6BKW-FPZ/2024-09-17-14-21-01/
     RDKit          3D

 21 22  0  0  0  0  0  0  0  0999 V2000
   -7.7129    4.2099   27.0854 C   0  0  0  0  0  0  0  0  0  0  0  0
   -8.2112    3.0637   26.9225 C   0  0  0  0  0  0  0  0  0  0  0  0
   -7.5138    1.9223   27.4249 C   0  0  0  0  0  0  0  0  0  0  0  0
   -8.5309    5.4147   26.8151 C   0  0  0  0  0  0  0  0  0  0  0  0
   -9.6817    5.2393   26.1100 C   0  0  0  0  0  0  0  0  0  0  0  0
  -10.1032    3.9957   25.8534 C   0  0  0  0  0  0  0  0  0  0  0  0
   -9.4034    2.8430   26.2573 C   0  0  0  0  0  0  0  0  0  0  0  0
   -7.9563    0.5637   27.2536 C   0  0  0  0  0  0  0  0  0  0  0  0
   -9.2570    0.5009   26.6165 C   0  0  0  0  0  0  0  0  0  0  0  0
   -9.9537    1.5657   26.1011 C   0  0  0  0  0  0  0  0  0  0  0  0
   -7.9633    6.7757   27.0738 C   0  0  0  0  0  0  0  0  0  0  0  0
   -7.0311    6.8775   27.9318 N   0  0  0  0  0  0  0  0  0  0  0  0
   -8.3162    7.9519   26.3653 C   0  0  0  0  0  0  0  0  0  0  0  0
   -7.2710   -0.5229   27.8120 C   0  0  0  0  0  0  0  0  0  0  0  0
   -6.7298   -1.1787   27.2492 N   0  0  0  0  0  0  0  0  0  0  0  0
   -5.7771   -1.4754   26.8965 C   0  0  0  0  0  0  0  0  0  0  0  0
   -4.7290   -0.9837   27.3221 C   0  0  0  0  0  0  0  0  0  0  0  0
   -3.8176   -0.1757   26.5849 C   0  0  0  0  0  0  0  0  0  0  0  0
   -2.8868    0.5226   27.0541 C   0  0  0  0  0  0  0  0  0  0  0  0
   -2.6292    0.5708   28.5150 C   0  0  0  0  0  0  0  0  0  0  0  0
   -3.4941   -0.1792   29.3279 C   0  0  0  0  0  0  0  0  0  0  0  0
  4 11  1  0
 11 12  2  0
 11 13  1  0
  8 14  1  0
 14 15  1  0
 15 16  1  0
 16 17  2  3
 17 18  1  0
 18 19  2  3
 19 20  1  0
 20 21  2  0
  1  2  2  0
  7  6  2  0
  6  5  1  0
  5  4  2  0
  4  1  1  0
  2  3  1  0
  3  8  2  0
  8  9  1  0
  9 10  2  0
 10  7  1  0
  7  2  1  0
M  END
$$$$
