No_7450-complexes_sdf/6BKW-FPZ/2024-09-17-14-21-01/
     RDKit          3D

 16 17  0  0  0  0  0  0  0  0999 V2000
   -7.2496    3.8871   27.4508 C   0  0  0  0  0  0  0  0  0  0  0  0
   -7.6161    2.7143   27.1523 C   0  0  0  0  0  0  0  0  0  0  0  0
   -6.9719    1.5838   27.5324 C   0  0  0  0  0  0  0  0  0  0  0  0
   -7.4590    0.2827   27.2615 C   0  0  0  0  0  0  0  0  0  0  0  0
   -8.6787    2.5578   26.1663 C   0  0  0  0  0  0  0  0  0  0  0  0
   -9.4717    3.6665   25.8354 C   0  0  0  0  0  0  0  0  0  0  0  0
   -8.0188    5.1137   27.1696 C   0  0  0  0  0  0  0  0  0  0  0  0
   -9.1485    5.0369   26.5995 C   0  0  0  0  0  0  0  0  0  0  0  0
   -7.6540    6.2748   27.7141 F   0  0  0  0  0  0  0  0  0  0  0  0
   -6.7198   -0.7977   27.6655 C   0  0  0  0  0  0  0  0  0  0  0  0
   -5.5008   -0.6010   28.3334 C   0  0  0  0  0  0  0  0  0  0  0  0
   -4.9412    0.6459   28.5014 C   0  0  0  0  0  0  0  0  0  0  0  0
   -5.6477    1.6914   28.1329 C   0  0  0  0  0  0  0  0  0  0  0  0
   -3.6178    0.7892   29.1707 C   0  0  0  0  0  0  0  0  0  0  0  0
   -3.1017   -0.3904   29.7902 C   0  0  0  0  0  0  0  0  0  0  0  0
   -3.6614   -1.5970   29.5831 C   0  0  0  0  0  0  0  0  0  0  0  0
  2  3  1  0
  7  9  1  0
 12 14  1  0
 14 15  2  3
 15 16  1  0
  3  4  2  0
  4 10  1  0
 10 11  2  0
 11 12  1  0
 12 13  2  0
 13  3  1  0
  1  2  2  0
  2  5  1  0
  5  6  2  0
  6  8  1  0
  8  7  2  0
  7  1  1  0
M  END
$$$$
