No_7770-complexes_sdf/6BKW-FPZ/2024-09-17-14-21-01/
     RDKit          3D

 38 41  0  0  0  0  0  0  0  0999 V2000
   -7.9040    3.9820   27.1177 C   0  0  0  0  0  0  0  0  0  0  0  0
   -8.2057    2.8231   26.8733 C   0  0  0  0  0  0  0  0  0  0  0  0
   -8.7695    5.0740   26.7916 C   0  0  0  0  0  0  0  0  0  0  0  0
   -9.9618    4.7598   26.1630 C   0  0  0  0  0  0  0  0  0  0  0  0
   -9.4200    2.4524   26.2849 C   0  0  0  0  0  0  0  0  0  0  0  0
  -10.2590    3.4815   25.9250 C   0  0  0  0  0  0  0  0  0  0  0  0
   -8.3840    6.4693   27.0829 C   0  0  0  0  0  0  0  0  0  0  0  0
   -7.3884    6.7399   26.7882 F   0  0  0  0  0  0  0  0  0  0  0  0
   -9.4166    7.2116   27.4249 F   0  0  0  0  0  0  0  0  0  0  0  0
   -7.3585    1.7976   27.2873 F   0  0  0  0  0  0  0  0  0  0  0  0
  -11.5393    3.1950   25.1877 C   0  0  0  0  0  0  0  0  0  0  0  0
  -12.6283    2.6841   25.8008 C   0  0  0  0  0  0  0  0  0  0  0  0
  -13.8316    2.4703   25.1510 C   0  0  0  0  0  0  0  0  0  0  0  0
  -11.4656    2.8404   23.8309 C   0  0  0  0  0  0  0  0  0  0  0  0
  -12.6281    2.5991   23.0949 C   0  0  0  0  0  0  0  0  0  0  0  0
  -13.7810    2.3645   23.7853 C   0  0  0  0  0  0  0  0  0  0  0  0
  -10.2127    3.1613   23.0625 C   0  0  0  0  0  0  0  0  0  0  0  0
  -10.0821    2.5814   21.8323 C   0  0  0  0  0  0  0  0  0  0  0  0
  -11.2412    2.3307   21.0793 C   0  0  0  0  0  0  0  0  0  0  0  0
  -12.4567    2.1473   21.7333 C   0  0  0  0  0  0  0  0  0  0  0  0
  -15.0993    2.2820   25.9056 C   0  0  0  0  0  0  0  0  0  0  0  0
  -16.0923    1.9123   25.5085 O   0  0  0  0  0  0  0  0  0  0  0  0
  -14.9513    2.3270   27.3078 O   0  0  0  0  0  0  0  0  0  0  0  0
  -15.7076    2.6515   28.0695 C   0  0  0  0  0  0  0  0  0  0  0  0
  -15.3382    2.4674   29.3151 C   0  0  0  0  0  0  0  0  0  0  0  0
  -14.7632    3.7479   30.1584 P   0  0  1  0  0  0  0  0  0  0  0  0
  -14.7314    4.9329   29.5319 O   0  0  0  0  0  0  0  0  0  0  0  0
  -15.6420    3.9829   31.4265 O   0  0  0  0  0  0  0  0  0  0  0  0
  -13.3463    3.3516   30.7199 O   0  0  0  0  0  0  0  0  0  0  0  0
  -15.1937    3.6474   32.6194 C   0  0  0  0  0  0  0  0  0  0  0  0
  -15.1438    2.5490   33.2337 C   0  0  0  0  0  0  0  0  0  0  0  0
  -14.4967    2.3632   34.5006 C   0  0  0  0  0  0  0  0  0  0  0  0
  -13.9258    3.4596   35.2214 C   0  0  0  0  0  0  0  0  0  0  0  0
  -14.0065    4.7378   34.5368 C   0  0  0  0  0  0  0  0  0  0  0  0
  -14.5677    4.8653   33.3355 C   0  0  0  0  0  0  0  0  0  0  0  0
  -13.4298    5.8953   35.3120 C   0  0  0  0  0  0  0  0  0  0  0  0
  -12.3187    5.6507   36.1629 C   0  0  0  0  0  0  0  0  0  0  0  0
  -11.7749    4.3680   36.2189 C   0  0  0  0  0  0  0  0  0  0  0  0
  3  7  1  0
  7  8  1  0
  7  9  1  0
  2 10  1  0
  6 11  1  0
 13 21  1  0
 21 22  2  0
 21 23  1  0
 23 24  1  0
 24 25  2  3
 25 26  1  0
 26 27  2  0
 26 28  1  0
 26 29  1  1
 28 30  1  0
 34 36  1  0
 36 37  1  0
 37 38  2  0
 15 20  2  0
 20 19  1  0
 19 18  2  0
 18 17  1  0
 17 14  2  0
 30 31  2  0
 31 32  1  0
 32 33  2  0
 33 34  1  0
 34 35  2  0
 35 30  1  0
  1  2  2  0
  2  5  1  0
  5  6  2  0
  6  4  1  0
  4  3  2  0
  3  1  1  0
 11 12  2  0
 12 13  1  0
 13 16  2  0
 16 15  1  0
 15 14  1  0
 14 11  1  0
M  END
$$$$
