No_795-complexes_sdf/6BKW-FPZ/2024-09-17-14-21-01/
     RDKit          3D

 19 21  0  0  0  0  0  0  0  0999 V2000
   -7.7129    4.2099   27.0854 C   0  0  0  0  0  0  0  0  0  0  0  0
   -7.7814    5.1722   27.8972 C   0  0  0  0  0  0  0  0  0  0  0  0
   -8.8998    3.8713   26.3707 C   0  0  0  0  0  0  0  0  0  0  0  0
   -8.9563    2.6796   25.5490 C   0  0  0  0  0  0  0  0  0  0  0  0
   -8.8131    6.1334   27.9344 C   0  0  0  0  0  0  0  0  0  0  0  0
   -9.9804    5.8121   27.1929 C   0  0  0  0  0  0  0  0  0  0  0  0
   -9.9861    4.6836   26.4532 C   0  0  0  0  0  0  0  0  0  0  0  0
   -9.8430    2.5340   24.5239 C   0  0  0  0  0  0  0  0  0  0  0  0
  -10.8827    3.5687   24.4657 C   0  0  0  0  0  0  0  0  0  0  0  0
  -10.9951    4.5196   25.4154 C   0  0  0  0  0  0  0  0  0  0  0  0
  -11.9371    3.3582   23.4623 C   0  0  0  0  0  0  0  0  0  0  0  0
  -11.6764    3.7819   22.2737 C   0  0  0  0  0  0  0  0  0  0  0  0
  -10.4989    4.3845   21.9878 C   0  0  0  0  0  0  0  0  0  0  0  0
  -12.6983    3.6243   21.1853 C   0  0  0  0  0  0  0  0  0  0  0  0
  -10.2300    4.7881   20.5382 C   0  0  0  0  0  0  0  0  0  0  0  0
  -12.4624    3.9842   19.8536 C   0  0  0  0  0  0  0  0  0  0  0  0
  -11.1873    4.5504   19.5666 C   0  0  0  0  0  0  0  0  0  0  0  0
  -13.1205    3.3750   23.9898 O   0  0  0  0  0  0  0  0  0  0  0  0
   -6.6880    5.5653   28.6526 O   0  0  0  0  0  0  0  0  0  0  0  0
  9 11  1  0
 11 12  1  0
 11 18  2  0
  2 19  1  0
  1  2  2  0
  2  5  1  0
  5  6  2  0
  6  7  1  0
  3  1  1  0
 12 13  2  0
 13 15  1  0
 15 17  2  0
 17 16  1  0
 16 14  2  0
 14 12  1  0
  3  4  2  0
  4  8  1  0
  8  9  2  0
  9 10  1  0
 10  7  2  0
  7  3  1  0
M  END
$$$$
