No_7134-complexes_sdf/6BKW-FPZ/2024-09-17-14-21-01/
     RDKit          3D

 18 19  0  0  0  0  0  0  0  0999 V2000
   -7.9040    3.9820   27.1177 C   0  0  0  0  0  0  0  0  0  0  0  0
   -8.2057    2.8231   26.8733 C   0  0  0  0  0  0  0  0  0  0  0  0
   -8.7695    5.0740   26.7916 C   0  0  0  0  0  0  0  0  0  0  0  0
   -9.9618    4.7598   26.1630 C   0  0  0  0  0  0  0  0  0  0  0  0
   -9.4200    2.4524   26.2850 C   0  0  0  0  0  0  0  0  0  0  0  0
  -10.2590    3.4815   25.9250 C   0  0  0  0  0  0  0  0  0  0  0  0
   -8.3837    6.4702   27.0872 C   0  0  0  0  0  0  0  0  0  0  0  0
   -7.7610    6.8612   28.1191 N   0  0  0  0  0  0  0  0  0  0  0  0
   -8.5262    7.3814   26.1083 N   0  0  0  0  0  0  0  0  0  0  0  0
   -7.4767    1.5446   27.2367 C   0  0  0  0  0  0  0  0  0  0  0  0
   -7.9218    0.3081   27.1691 C   0  0  0  0  0  0  0  0  0  0  0  0
   -9.2042    0.1412   26.5926 C   0  0  0  0  0  0  0  0  0  0  0  0
   -9.9267    1.1425   26.1508 C   0  0  0  0  0  0  0  0  0  0  0  0
   -7.1001   -0.8144   27.6634 C   0  0  0  0  0  0  0  0  0  0  0  0
   -7.6227   -1.7728   28.3711 N   0  0  0  0  0  0  0  0  0  0  0  0
   -6.9705   -2.5003   29.2479 C   0  0  0  0  0  0  0  0  0  0  0  0
   -5.6256   -2.2834   29.3817 C   0  0  0  0  0  0  0  0  0  0  0  0
   -5.5664   -0.6899   27.2821 Cl  0  0  0  0  0  0  0  0  0  0  0  0
  3  7  1  0
  7  8  2  0
  7  9  1  0
 11 14  1  0
 14 15  1  0
 15 16  1  0
 16 17  2  0
 14 18  1  0
  1  2  2  0
  5  6  2  0
  6  4  1  0
  4  3  2  0
  3  1  1  0
  2  5  1  0
  5 13  1  0
 13 12  2  0
 12 11  1  0
 11 10  2  0
 10  2  1  0
M  END
$$$$
