No_773-complexes_sdf/6BKW-FPZ/2024-09-17-14-21-01/
     RDKit          3D

 21 22  0  0  0  0  0  0  0  0999 V2000
   -7.9040    3.9820   27.1177 C   0  0  0  0  0  0  0  0  0  0  0  0
   -9.0711    4.3164   27.0630 C   0  0  0  0  0  0  0  0  0  0  0  0
   -9.5182    5.5541   27.5777 C   0  0  0  0  0  0  0  0  0  0  0  0
   -7.4468    2.6843   26.6499 C   0  0  0  0  0  0  0  0  0  0  0  0
   -8.3856    1.7878   26.2216 C   0  0  0  0  0  0  0  0  0  0  0  0
   -9.6812    2.2328   26.0889 C   0  0  0  0  0  0  0  0  0  0  0  0
  -10.0147    3.4312   26.5259 C   0  0  0  0  0  0  0  0  0  0  0  0
   -7.9132    0.4733   25.8127 C   0  0  0  0  0  0  0  0  0  0  0  0
   -8.2415    0.0028   24.6609 C   0  0  0  0  0  0  0  0  0  0  0  0
   -7.7277   -1.2608   24.1708 C   0  0  0  0  0  0  0  0  0  0  0  0
   -6.9236   -2.0111   25.0695 C   0  0  0  0  0  0  0  0  0  0  0  0
   -7.0162   -0.3175   26.6747 C   0  0  0  0  0  0  0  0  0  0  0  0
   -6.5639   -1.4911   26.3258 C   0  0  0  0  0  0  0  0  0  0  0  0
   -8.9552    6.6066   27.0977 F   0  0  0  0  0  0  0  0  0  0  0  0
   -9.4037    5.6841   28.9822 F   0  0  0  0  0  0  0  0  0  0  0  0
  -10.8832    5.7358   27.5180 F   0  0  0  0  0  0  0  0  0  0  0  0
   -5.7242   -2.2866   27.2198 C   0  0  0  0  0  0  0  0  0  0  0  0
   -5.3756   -1.8831   28.1620 N   0  0  0  0  0  0  0  0  0  0  0  0
   -4.1650   -2.0632   28.8537 C   0  0  0  0  0  0  0  0  0  0  0  0
   -3.3089   -1.1079   29.1998 C   0  0  0  0  0  0  0  0  0  0  0  0
   -2.0712   -1.0764   29.5629 C   0  0  0  0  0  0  0  0  0  0  0  0
  2  3  1  0
  5  8  1  0
  3 14  1  0
  3 15  1  0
  3 16  1  0
 13 17  1  0
 17 18  1  0
 18 19  1  0
 19 20  2  3
 20 21  1  0
  1  2  2  0
  2  7  1  0
  7  6  2  0
  6  5  1  0
  5  4  2  0
  4  1  1  0
  8  9  2  0
  9 10  1  0
 10 11  2  0
 11 13  1  0
 13 12  2  0
 12  8  1  0
M  END
$$$$
