No_7865-complexes_sdf/6BKW-FPZ/2024-09-17-14-21-01/
     RDKit          3D

 16 16  0  0  0  0  0  0  0  0999 V2000
   -7.7129    4.2099   27.0854 C   0  0  0  0  0  0  0  0  0  0  0  0
   -8.9133    4.4736   27.0998 C   0  0  0  0  0  0  0  0  0  0  0  0
   -9.7135    3.9633   26.0300 C   0  0  0  0  0  0  0  0  0  0  0  0
   -6.8420    4.9760   28.0851 C   0  0  0  0  0  0  0  0  0  0  0  0
  -10.9164    3.4776   26.1172 C   0  0  0  0  0  0  0  0  0  0  0  0
  -11.6897    3.8137   27.2914 C   0  0  0  0  0  0  0  0  0  0  0  0
  -11.2341    4.2254   28.1774 C   0  0  0  0  0  0  0  0  0  0  0  0
   -9.7634    4.5641   28.3135 C   0  0  0  0  0  0  0  0  0  0  0  0
  -13.2033    3.4542   27.2161 C   0  0  0  0  0  0  0  0  0  0  0  0
  -14.0991    3.8352   27.5618 N   0  0  0  0  0  0  0  0  0  0  0  0
  -13.4456    2.1732   26.3569 C   0  0  0  0  0  0  0  0  0  0  0  0
  -14.0130    5.0186   28.4666 C   0  0  0  0  0  0  0  0  0  0  0  0
  -15.2886    5.7330   28.8604 C   0  0  0  0  0  0  0  0  0  0  0  0
   -5.7244    4.3857   28.5193 O   0  0  0  0  0  0  0  0  0  0  0  0
   -7.2598    6.0397   28.5695 O   0  0  0  0  0  0  0  0  0  0  0  0
  -15.5355    6.6645   28.3195 C   0  0  0  0  0  0  0  0  0  0  0  0
  1  2  1  0
  1  4  1  0
  6  9  1  0
  9 10  2  3
  9 11  1  0
 10 12  1  0
 12 13  2  3
  4 14  1  0
  4 15  2  0
 13 16  1  0
  2  3  2  0
  3  5  1  0
  5  6  2  0
  6  7  1  0
  7  8  2  0
  8  2  1  0
M  END
$$$$
