No_7195-complexes_sdf/6BKW-FPZ/2024-09-17-14-21-01/
     RDKit          3D

 37 43  0  0  0  0  0  0  0  0999 V2000
   -7.2496    3.8871   27.4508 C   0  0  0  0  0  0  0  0  0  0  0  0
   -7.6161    2.7143   27.1523 C   0  0  0  0  0  0  0  0  0  0  0  0
   -6.9719    1.5838   27.5324 C   0  0  0  0  0  0  0  0  0  0  0  0
   -5.6316    1.7305   27.9933 C   0  0  0  0  0  0  0  0  0  0  0  0
   -5.8952    4.0984   27.9705 C   0  0  0  0  0  0  0  0  0  0  0  0
   -4.8166    0.6187   28.4081 C   0  0  0  0  0  0  0  0  0  0  0  0
   -5.1767    3.0985   28.2572 C   0  0  0  0  0  0  0  0  0  0  0  0
   -3.7077    0.6630   29.0068 C   0  0  0  0  0  0  0  0  0  0  0  0
   -2.9159   -0.4743   29.4712 C   0  0  0  0  0  0  0  0  0  0  0  0
   -3.4685   -1.7080   29.1818 C   0  0  0  0  0  0  0  0  0  0  0  0
   -5.3025   -0.7283   28.1795 C   0  0  0  0  0  0  0  0  0  0  0  0
   -4.6752   -1.8208   28.5815 C   0  0  0  0  0  0  0  0  0  0  0  0
   -8.0881    5.0901   27.1483 C   0  0  1  0  0  0  0  0  0  0  0  0
   -9.1653    5.3684   27.4839 C   0  0  0  0  0  0  0  0  0  0  0  0
   -9.8091    6.6328   27.2210 C   0  0  0  0  0  0  0  0  0  0  0  0
   -8.9280    7.5986   26.6600 C   0  0  0  0  0  0  0  0  0  0  0  0
   -7.4736    6.3954   26.6551 C   0  0  0  0  0  0  0  0  0  0  0  0
  -10.1814    4.3237   28.0821 C   0  0  0  0  0  0  0  0  0  0  0  0
  -11.5484    4.3153   27.7686 C   0  0  0  0  0  0  0  0  0  0  0  0
  -12.3708    3.3573   28.4367 C   0  0  0  0  0  0  0  0  0  0  0  0
  -13.6474    3.5275   28.7214 C   0  0  0  0  0  0  0  0  0  0  0  0
  -14.2739    4.6254   28.0010 C   0  0  0  0  0  0  0  0  0  0  0  0
  -13.5541    5.4166   27.1020 C   0  0  0  0  0  0  0  0  0  0  0  0
  -12.1692    5.3105   27.1306 C   0  0  0  0  0  0  0  0  0  0  0  0
  -15.8096    4.7020   28.0373 C   0  0  0  0  0  0  0  0  0  0  0  0
  -16.5021    4.4844   28.9450 N   0  0  0  0  0  0  0  0  0  0  0  0
  -17.7563    4.6810   29.0740 C   0  0  0  0  0  0  0  0  0  0  0  0
  -16.3720    5.1689   26.9711 O   0  0  0  0  0  0  0  0  0  0  0  0
   -5.2670   -3.0303   28.3495 O   0  0  0  0  0  0  0  0  0  0  0  0
   -6.3023   -3.3004   27.8552 C   0  0  0  0  0  0  0  0  0  0  0  0
   -6.9047   -4.5611   27.6179 C   0  0  0  0  0  0  0  0  0  0  0  0
   -8.1180   -4.7651   27.0396 C   0  0  0  0  0  0  0  0  0  0  0  0
   -8.8922   -3.6531   26.6323 C   0  0  0  0  0  0  0  0  0  0  0  0
   -8.4359   -2.3568   26.8194 C   0  0  0  0  0  0  0  0  0  0  0  0
   -7.2486   -2.1260   27.4281 C   0  0  0  0  0  0  0  0  0  0  0  0
   -6.6326   -0.8189   27.6293 C   0  0  0  0  0  0  0  0  0  0  0  0
   -7.4006    0.3069   27.2952 C   0  0  0  0  0  0  0  0  0  0  0  0
 13  1  1  1
 13 14  1  0
 14 15  2  0
 15 16  1  0
 13 17  1  0
 16 17  2  0
 14 18  1  0
 22 25  1  0
 25 26  1  0
 26 27  1  0
 25 28  2  0
 12 29  1  0
 29 30  1  0
 35 36  1  0
 18 19  1  0
  4  6  2  0
 11 36  2  0
 36 37  1  0
 37  3  2  0
 30 31  2  0
 31 32  1  0
 32 33  2  0
 33 34  1  0
 34 35  2  0
 35 30  1  0
  1  2  2  0
  2  3  1  0
  3  4  1  0
  4  7  1  0
  7  5  2  0
  5  1  1  0
 19 20  2  0
 20 21  1  0
 21 22  2  0
 22 23  1  0
 23 24  2  0
 24 19  1  0
  6  8  1  0
  8  9  2  0
  9 10  1  0
 10 12  2  0
 12 11  1  0
 11  6  1  0
M  END
$$$$
