No_7881-complexes_sdf/6BKW-FPZ/2024-09-17-14-21-01/
     RDKit          3D

 15 16  0  0  0  0  0  0  0  0999 V2000
   -7.7129    4.2099   27.0854 C   0  0  0  0  0  0  0  0  0  0  0  0
   -8.2112    3.0637   26.9225 C   0  0  0  0  0  0  0  0  0  0  0  0
   -8.5108    5.3904   26.9436 C   0  0  0  0  0  0  0  0  0  0  0  0
   -7.9752    6.6981   27.2112 C   0  0  0  0  0  0  0  0  0  0  0  0
   -9.5213    2.8208   26.4688 C   0  0  0  0  0  0  0  0  0  0  0  0
  -10.2979    3.9327   26.2378 C   0  0  0  0  0  0  0  0  0  0  0  0
   -9.7894    5.2123   26.4395 C   0  0  0  0  0  0  0  0  0  0  0  0
   -7.1634    1.9300   27.2316 C   0  0  0  0  0  0  0  0  0  0  0  0
   -6.0613    2.2299   27.7617 N   0  0  0  0  0  0  0  0  0  0  0  0
   -7.4630    0.6028   26.8498 C   0  0  0  0  0  0  0  0  0  0  0  0
   -5.1069    1.2291   28.0960 C   0  0  0  0  0  0  0  0  0  0  0  0
   -5.3277   -0.0424   27.8533 C   0  0  0  0  0  0  0  0  0  0  0  0
   -6.5506   -0.3590   27.2383 C   0  0  0  0  0  0  0  0  0  0  0  0
   -7.9081    7.5625   26.5213 O   0  0  0  0  0  0  0  0  0  0  0  0
   -7.4047    6.7469   28.4289 O   0  0  0  0  0  0  0  0  0  0  0  0
  3  4  1  0
  2  8  1  0
  4 14  2  0
  4 15  1  0
  8  9  2  0
  9 11  1  0
 11 12  2  0
 12 13  1  0
 13 10  2  0
 10  8  1  0
  1  2  2  0
  2  5  1  0
  5  6  2  0
  6  7  1  0
  7  3  2  0
  3  1  1  0
M  END
$$$$
