No_7021-complexes_sdf/6BKW-FPZ/2024-09-17-14-21-01/
     RDKit          3D

 35 39  0  0  0  0  0  0  0  0999 V2000
   -7.9040    3.9820   27.1177 C   0  0  0  0  0  0  0  0  0  0  0  0
   -9.0711    4.3164   27.0630 C   0  0  0  0  0  0  0  0  0  0  0  0
   -9.5182    5.5541   27.5777 C   0  0  0  0  0  0  0  0  0  0  0  0
   -7.4468    2.6843   26.6499 C   0  0  0  0  0  0  0  0  0  0  0  0
   -8.3856    1.7878   26.2216 C   0  0  0  0  0  0  0  0  0  0  0  0
   -9.5450    2.2132   26.1717 C   0  0  0  0  0  0  0  0  0  0  0  0
   -9.9894    3.4052   26.5687 C   0  0  0  0  0  0  0  0  0  0  0  0
   -7.6536    0.5211   25.8325 C   0  0  0  0  0  0  0  0  0  0  0  0
   -8.2494   -0.5701   26.2124 N   0  0  0  0  0  0  0  0  0  0  0  0
   -7.8465   -1.6773   26.0862 C   0  0  0  0  0  0  0  0  0  0  0  0
   -8.7011    6.7212   27.1735 C   0  0  0  0  0  0  0  0  0  0  0  0
   -7.2919    6.5770   27.2379 C   0  0  0  0  0  0  0  0  0  0  0  0
   -6.8888    5.1135   27.2486 C   0  0  0  0  0  0  0  0  0  0  0  0
   -7.7962   -2.5650   25.6001 C   0  0  0  0  0  0  0  0  0  0  0  0
   -8.7076   -2.6894   24.4239 C   0  0  0  0  0  0  0  0  0  0  0  0
   -8.4985   -2.0729   23.4683 C   0  0  0  0  0  0  0  0  0  0  0  0
   -9.0944   -2.3958   22.1144 C   0  0  0  0  0  0  0  0  0  0  0  0
  -10.0192   -3.3160   22.0438 C   0  0  0  0  0  0  0  0  0  0  0  0
  -10.2665   -4.0371   23.1903 C   0  0  0  0  0  0  0  0  0  0  0  0
   -9.5857   -3.8268   24.3128 C   0  0  0  0  0  0  0  0  0  0  0  0
   -7.0322   -1.7182   27.4713 N   0  0  0  0  0  0  0  0  0  0  0  0
   -6.9663   -0.9815   28.3613 C   0  0  0  0  0  0  0  0  0  0  0  0
   -5.6447   -0.9060   29.1198 C   0  0  0  0  0  0  0  0  0  0  0  0
   -4.6053   -1.3359   28.4963 C   0  0  0  0  0  0  0  0  0  0  0  0
   -3.3010   -1.1540   29.1554 C   0  0  0  0  0  0  0  0  0  0  0  0
   -3.1642   -0.4445   30.3554 C   0  0  0  0  0  0  0  0  0  0  0  0
   -4.3469    0.1035   30.9341 C   0  0  0  0  0  0  0  0  0  0  0  0
   -5.5126   -0.1032   30.2997 C   0  0  0  0  0  0  0  0  0  0  0  0
   -7.0109   -3.7584   25.9423 C   0  0  0  0  0  0  0  0  0  0  0  0
   -6.4775   -3.1481   27.3315 C   0  0  0  0  0  0  0  0  0  0  0  0
   -2.0555   -1.6278   28.4865 C   0  0  0  0  0  0  0  0  0  0  0  0
   -2.0346   -1.9473   27.4913 C   0  0  0  0  0  0  0  0  0  0  0  0
   -0.8437   -1.6104   29.3553 C   0  0  0  0  0  0  0  0  0  0  0  0
   -2.5726   -1.2667   26.3858 C   0  0  0  0  0  0  0  0  0  0  0  0
   -3.6731   -1.0694   26.5125 F   0  0  0  0  0  0  0  0  0  0  0  0
  5  8  1  0
  8  9  1  0
  9 10  1  0
 10 14  2  0
 14 15  1  0
 10 21  1  0
 21 22  1  0
 22 23  1  0
 14 29  1  0
 21 30  1  0
 29 30  2  0
 25 31  1  0
 31 32  1  0
 31 33  1  0
 32 34  1  0
 34 35  1  0
 15 16  2  0
 16 17  1  0
 17 18  2  0
 18 19  1  0
 19 20  2  0
 20 15  1  0
  2  3  2  0
  3 11  1  0
 11 12  2  0
 12 13  1  0
 13  1  2  0
  1  2  1  0
  2  7  1  0
  7  6  2  0
  6  5  1  0
  5  4  2  0
  4  1  1  0
 23 24  2  0
 24 25  1  0
 25 26  2  0
 26 27  1  0
 27 28  2  0
 28 23  1  0
M  END
$$$$
