No_7758-complexes_sdf/6BKW-FPZ/2024-09-17-14-21-01/
     RDKit          3D

 15 16  0  0  0  0  0  0  0  0999 V2000
   -7.7129    4.2099   27.0854 C   0  0  0  0  0  0  0  0  0  0  0  0
   -8.9133    4.4736   27.0998 C   0  0  0  0  0  0  0  0  0  0  0  0
   -9.4643    5.5426   27.7628 C   0  0  0  0  0  0  0  0  0  0  0  0
   -9.8091    3.6358   26.2841 C   0  0  0  0  0  0  0  0  0  0  0  0
   -9.4101    2.5938   25.7918 C   0  0  0  0  0  0  0  0  0  0  0  0
   -7.2012    2.8508   26.8768 C   0  0  0  0  0  0  0  0  0  0  0  0
   -8.0866    2.0216   26.2188 C   0  0  0  0  0  0  0  0  0  0  0  0
   -7.6545    0.6806   25.8405 C   0  0  0  0  0  0  0  0  0  0  0  0
   -6.9368   -0.0619   26.8196 C   0  0  0  0  0  0  0  0  0  0  0  0
   -6.4598   -1.3203   26.5266 C   0  0  0  0  0  0  0  0  0  0  0  0
   -6.7251   -1.7972   25.2694 C   0  0  0  0  0  0  0  0  0  0  0  0
   -7.8103   -0.0615   24.7292 C   0  0  0  0  0  0  0  0  0  0  0  0
   -7.3567   -1.1568   24.3343 C   0  0  0  0  0  0  0  0  0  0  0  0
   -6.8129    4.9776   28.1171 C   0  0  0  0  0  0  0  0  0  0  0  0
   -8.4850    0.7368   23.6899 O   0  0  0  0  0  0  0  0  0  0  0  0
  2  3  1  0
  7  8  1  0
  9 10  1  0
  8 12  1  0
 11 13  1  0
 12 13  1  0
  1 14  1  0
 12 15  2  0
  8  9  1  0
 10 11  1  0
  1  2  2  0
  2  4  1  0
  4  5  2  0
  5  7  1  0
  7  6  2  0
  6  1  1  0
M  END
$$$$
