No_7931-complexes_sdf/6BKW-FPZ/2024-09-17-14-21-01/
     RDKit          3D

 16 17  0  0  0  0  0  0  0  0999 V2000
   -7.7129    4.2099   27.0854 C   0  0  0  0  0  0  0  0  0  0  0  0
   -8.9133    4.4736   27.0998 C   0  0  0  0  0  0  0  0  0  0  0  0
   -9.8363    3.8127   27.2418 C   0  0  0  0  0  0  0  0  0  0  0  0
   -7.2995    2.8520   27.3808 C   0  0  0  0  0  0  0  0  0  0  0  0
   -8.3404    1.9507   27.4989 C   0  0  0  0  0  0  0  0  0  0  0  0
   -9.6166    2.3791   27.4719 C   0  0  0  0  0  0  0  0  0  0  0  0
   -9.1683    6.0342   26.9011 C   0  0  0  0  0  0  0  0  0  0  0  0
   -9.7682    6.5162   27.8380 F   0  0  0  0  0  0  0  0  0  0  0  0
   -9.7587    6.2647   25.6894 F   0  0  0  0  0  0  0  0  0  0  0  0
   -7.9558    6.8016   26.8216 F   0  0  0  0  0  0  0  0  0  0  0  0
   -7.9909    0.5362   27.6754 C   0  0  0  0  0  0  0  0  0  0  0  0
   -6.7534    0.0988   27.7308 N   0  0  0  0  0  0  0  0  0  0  0  0
   -6.3744   -1.1364   28.1022 C   0  0  0  0  0  0  0  0  0  0  0  0
   -7.4270   -1.9832   28.3439 C   0  0  0  0  0  0  0  0  0  0  0  0
   -8.8579   -0.5243   28.0564 C   0  0  0  0  0  0  0  0  0  0  0  0
   -8.6640   -1.6682   28.4127 C   0  0  0  0  0  0  0  0  0  0  0  0
  2  7  1  0
  7  8  1  0
  7  9  1  0
  7 10  1  0
  5 11  1  0
  1  2  2  0
  2  3  1  0
  3  6  2  0
  6  5  1  0
  5  4  2  0
  4  1  1  0
 11 12  2  0
 12 13  1  0
 13 14  2  0
 14 16  1  0
 16 15  2  0
 15 11  1  0
M  END
$$$$
