No_7705-complexes_sdf/6BKW-FPZ/2024-09-17-14-21-01/
     RDKit          3D

 13 14  0  0  0  0  0  0  0  0999 V2000
   -7.7129    4.2099   27.0854 C   0  0  0  0  0  0  0  0  0  0  0  0
   -8.9133    4.4736   27.0998 C   0  0  0  0  0  0  0  0  0  0  0  0
   -9.4616    5.6470   27.6290 C   0  0  0  0  0  0  0  0  0  0  0  0
   -7.2326    2.9175   26.7557 C   0  0  0  0  0  0  0  0  0  0  0  0
   -6.1802    2.3077   27.4739 C   0  0  0  0  0  0  0  0  0  0  0  0
   -5.9768    0.9338   27.4120 C   0  0  0  0  0  0  0  0  0  0  0  0
   -6.8677    0.1267   26.8186 C   0  0  0  0  0  0  0  0  0  0  0  0
   -8.1355    1.8232   26.4184 C   0  0  0  0  0  0  0  0  0  0  0  0
   -8.0183    0.6168   26.3986 C   0  0  0  0  0  0  0  0  0  0  0  0
   -8.5431    6.7495   27.7708 C   0  0  0  0  0  0  0  0  0  0  0  0
   -7.2097    6.4872   27.6025 C   0  0  0  0  0  0  0  0  0  0  0  0
   -6.8053    5.2606   27.4233 C   0  0  0  0  0  0  0  0  0  0  0  0
   -4.4673    0.3415   28.1498 Cl  0  0  0  0  0  0  0  0  0  0  0  0
  1  4  1  0
  6 13  1  0
  1  2  2  0
  2  3  1  0
  3 10  2  0
 10 11  1  0
 11 12  2  0
 12  1  1  0
  4  5  2  0
  5  6  1  0
  6  7  2  0
  7  9  1  0
  9  8  2  0
  8  4  1  0
M  END
$$$$
