No_7628-complexes_sdf/6BKW-FPZ/2024-09-17-14-21-01/
     RDKit          3D

 13 14  0  0  0  0  0  0  0  0999 V2000
   -7.2496    3.8871   27.4508 C   0  0  0  0  0  0  0  0  0  0  0  0
   -7.6161    2.7143   27.1523 C   0  0  0  0  0  0  0  0  0  0  0  0
   -7.1618    1.8631   27.5232 C   0  0  0  0  0  0  0  0  0  0  0  0
   -8.0036    5.1085   27.2100 C   0  0  2  0  0  0  0  0  0  0  0  0
   -7.6739    6.3858   27.8565 C   0  0  0  0  0  0  0  0  0  0  0  0
   -9.3177    4.9356   26.7048 C   0  0  0  0  0  0  0  0  0  0  0  0
   -9.7217    3.7664   26.1480 C   0  0  2  0  0  0  0  0  0  0  0  0
   -8.9576    2.6365   26.4866 C   0  0  0  0  0  0  0  0  0  0  0  0
   -7.4912    0.4193   27.2250 C   0  0  0  0  0  0  0  0  0  0  0  0
   -8.7372    0.2467   26.6579 C   0  0  0  0  0  0  0  0  0  0  0  0
   -9.4776    1.3818   26.1966 C   0  0  0  0  0  0  0  0  0  0  0  0
  -10.7919    3.7367   25.2332 C   0  0  0  0  0  0  0  0  0  0  0  0
  -12.1094    3.5753   25.6488 C   0  0  0  0  0  0  0  0  0  0  0  0
  1  2  1  0
  1  4  1  0
  4  5  1  1
  4  6  1  0
  6  7  1  0
  7  8  1  0
  7 12  1  6
 12 13  2  0
  2  3  2  0
  3  9  1  0
  9 10  2  0
 10 11  1  0
 11  8  2  0
  8  2  1  0
M  END
$$$$
