No_7159-complexes_sdf/6BKW-FPZ/2024-09-17-14-21-01/
     RDKit          3D

 37 40  0  0  0  0  0  0  0  0999 V2000
   -7.7129    4.2099   27.0854 C   0  0  0  0  0  0  0  0  0  0  0  0
   -8.9133    4.4736   27.0998 C   0  0  0  0  0  0  0  0  0  0  0  0
   -9.7135    3.9633   26.0300 C   0  0  0  0  0  0  0  0  0  0  0  0
   -7.1708    2.9509   26.6517 C   0  0  0  0  0  0  0  0  0  0  0  0
   -8.1338    2.1226   26.0347 C   0  0  0  0  0  0  0  0  0  0  0  0
   -9.3389    2.6863   25.6841 C   0  0  0  0  0  0  0  0  0  0  0  0
   -9.2650    5.9655   27.3972 C   0  0  0  0  0  0  0  0  0  0  0  0
   -7.7384    0.7678   25.6873 C   0  0  0  0  0  0  0  0  0  0  0  0
   -7.0278    0.0161   26.6397 C   0  0  0  0  0  0  0  0  0  0  0  0
   -5.8931   -0.5845   26.2775 C   0  0  0  0  0  0  0  0  0  0  0  0
   -4.9311   -0.9589   27.2439 C   0  0  0  0  0  0  0  0  0  0  0  0
   -5.2717   -0.8946   28.6213 C   0  0  0  0  0  0  0  0  0  0  0  0
   -6.4962   -0.3028   28.9628 C   0  0  0  0  0  0  0  0  0  0  0  0
   -7.3150    0.2226   27.9929 C   0  0  0  0  0  0  0  0  0  0  0  0
   -4.3541   -1.3767   29.6814 C   0  0  0  0  0  0  0  0  0  0  0  0
   -4.1856   -0.6167   30.7561 C   0  0  0  0  0  0  0  0  0  0  0  0
   -3.3161   -0.9128   31.8045 C   0  0  0  0  0  0  0  0  0  0  0  0
   -2.4689   -1.9856   31.6645 C   0  0  0  0  0  0  0  0  0  0  0  0
   -2.6367   -2.7612   30.5282 C   0  0  0  0  0  0  0  0  0  0  0  0
   -3.5128   -2.4383   29.5279 C   0  0  0  0  0  0  0  0  0  0  0  0
   -1.4999   -2.2571   32.7636 C   0  0  0  0  0  0  0  0  0  0  0  0
   -0.3679   -2.6060   32.5409 N   0  0  0  0  0  0  0  0  0  0  0  0
   -1.9944   -2.4404   33.9604 O   0  0  0  0  0  0  0  0  0  0  0  0
    0.6594   -2.8436   33.6304 C   0  0  0  0  0  0  0  0  0  0  0  0
    0.3382   -2.3519   31.2449 C   0  0  0  0  0  0  0  0  0  0  0  0
  -10.0540    6.1548   28.3303 C   0  0  0  0  0  0  0  0  0  0  0  0
   -8.4819    7.0045   26.7900 C   0  0  0  0  0  0  0  0  0  0  0  0
   -8.7818    8.2614   27.1791 N   0  0  0  0  0  0  0  0  0  0  0  0
  -10.8390    5.0276   28.7968 C   0  0  0  0  0  0  0  0  0  0  0  0
  -12.2039    4.7022   28.4032 C   0  0  0  0  0  0  0  0  0  0  0  0
  -12.7969    3.6995   28.7650 C   0  0  0  0  0  0  0  0  0  0  0  0
  -14.1763    3.4460   28.6294 C   0  0  0  0  0  0  0  0  0  0  0  0
  -14.8658    2.3161   29.1161 C   0  0  0  0  0  0  0  0  0  0  0  0
  -14.0614    1.3623   29.8247 C   0  0  0  0  0  0  0  0  0  0  0  0
  -12.7184    1.4892   29.9169 C   0  0  0  0  0  0  0  0  0  0  0  0
  -12.0521    2.5970   29.4833 C   0  0  0  0  0  0  0  0  0  0  0  0
   -8.0919    0.2536   24.5985 O   0  0  0  0  0  0  0  0  0  0  0  0
  2  7  1  0
  5  8  1  0
  8  9  1  0
 12 15  1  0
 18 21  1  0
 21 22  1  0
 21 23  2  0
 22 24  1  0
 22 25  1  0
  7 26  2  3
  7 27  1  0
 27 28  2  0
 26 29  1  0
 29 30  2  3
 30 31  1  0
  8 37  2  0
 15 16  2  0
 16 17  1  0
 17 18  2  0
 18 19  1  0
 19 20  2  0
 20 15  1  0
 31 32  2  0
 32 33  1  0
 33 34  2  0
 34 35  1  0
 35 36  2  0
 36 31  1  0
  1  2  2  0
  2  3  1  0
  3  6  2  0
  6  5  1  0
  5  4  2  0
  4  1  1  0
  9 10  2  0
 10 11  1  0
 11 12  2  0
 12 13  1  0
 13 14  2  0
 14  9  1  0
M  END
$$$$
