No_7019-complexes_sdf/6BKW-FPZ/2024-09-17-14-21-01/
     RDKit          3D

 32 35  0  0  0  0  0  0  0  0999 V2000
   -7.9040    3.9820   27.1177 C   0  0  0  0  0  0  0  0  0  0  0  0
   -7.8663    4.8694   27.9238 C   0  0  0  0  0  0  0  0  0  0  0  0
   -9.0501    3.8017   26.2617 C   0  0  0  0  0  0  0  0  0  0  0  0
   -9.1826    2.7026   25.3575 C   0  0  0  0  0  0  0  0  0  0  0  0
   -8.6940    6.0131   27.8614 C   0  0  0  0  0  0  0  0  0  0  0  0
   -9.9755    4.8547   26.2361 C   0  0  0  0  0  0  0  0  0  0  0  0
   -9.7463    5.9398   27.0364 C   0  0  0  0  0  0  0  0  0  0  0  0
  -10.1068    2.7543   24.3357 C   0  0  0  0  0  0  0  0  0  0  0  0
  -10.9412    3.9321   24.2587 C   0  0  0  0  0  0  0  0  0  0  0  0
  -10.8832    4.8692   25.1581 C   0  0  0  0  0  0  0  0  0  0  0  0
  -11.9497    3.8836   23.1729 C   0  0  1  0  0  0  0  0  0  0  0  0
  -13.1600    3.7015   23.2315 C   0  0  0  0  0  0  0  0  0  0  0  0
  -11.3683    4.2061   21.8327 C   0  0  0  0  0  0  0  0  0  0  0  0
  -13.8135    3.5773   24.4566 C   0  0  0  0  0  0  0  0  0  0  0  0
  -15.2092    3.4536   24.6183 C   0  0  0  0  0  0  0  0  0  0  0  0
  -15.9218    3.3587   23.4698 C   0  0  0  0  0  0  0  0  0  0  0  0
  -14.0700    3.7225   22.1257 C   0  0  0  0  0  0  0  0  0  0  0  0
  -15.4140    3.5223   22.2524 C   0  0  0  0  0  0  0  0  0  0  0  0
   -6.9502    2.7915   27.2863 C   0  0  0  0  0  0  0  0  0  0  0  0
   -5.7333    3.0555   27.7701 N   0  0  0  0  0  0  0  0  0  0  0  0
   -7.2746    1.4450   27.0616 C   0  0  0  0  0  0  0  0  0  0  0  0
   -6.2756    0.5116   27.4230 C   0  0  0  0  0  0  0  0  0  0  0  0
   -5.0689    0.9257   27.9189 C   0  0  0  0  0  0  0  0  0  0  0  0
   -4.8899    2.2983   28.1309 N   0  0  0  0  0  0  0  0  0  0  0  0
   -3.9987    0.0368   28.3354 C   0  0  0  0  0  0  0  0  0  0  0  0
   -3.2050    0.4164   29.1333 O   0  0  0  0  0  0  0  0  0  0  0  0
   -3.9543   -1.1669   27.8081 N   0  0  0  0  0  0  0  0  0  0  0  0
   -2.8679   -2.0965   28.0819 C   0  0  0  0  0  0  0  0  0  0  0  0
  -10.3534    3.4334   21.3945 C   0  0  0  0  0  0  0  0  0  0  0  0
  -17.3068    3.1773   23.5591 O   0  0  0  0  0  0  0  0  0  0  0  0
  -17.9276    3.4987   24.7157 C   0  0  0  0  0  0  0  0  0  0  0  0
  -17.4090    3.0908   25.7432 C   0  0  0  0  0  0  0  0  0  0  0  0
  9 11  1  0
 11 12  1  0
 11 13  1  1
  1 19  1  0
 23 25  1  0
 25 26  1  0
 25 27  1  0
 27 28  1  0
 13 29  1  0
 16 30  1  0
 30 31  1  0
 31 32  2  0
 12 14  2  0
 14 15  1  0
 15 16  2  0
 16 18  1  0
 18 17  2  0
 17 12  1  0
 19 20  2  0
 20 24  1  0
 24 23  2  0
 23 22  1  0
 22 21  2  0
 21 19  1  0
  3  4  2  0
  4  8  1  0
  8  9  2  0
  9 10  1  0
 10  6  2  0
  1  2  2  0
  2  5  1  0
  5  7  2  0
  7  6  1  0
  6  3  1  0
  3  1  1  0
M  END
$$$$
