No_7666-complexes_sdf/6BKW-FPZ/2024-09-17-14-21-01/
     RDKit          3D

 17 18  0  0  0  0  0  0  0  0999 V2000
   -7.9040    3.9820   27.1177 C   0  0  0  0  0  0  0  0  0  0  0  0
   -9.0711    4.3164   27.0630 C   0  0  0  0  0  0  0  0  0  0  0  0
  -10.0395    3.8218   27.1938 C   0  0  0  0  0  0  0  0  0  0  0  0
   -7.6424    2.5858   27.3610 C   0  0  0  0  0  0  0  0  0  0  0  0
   -6.3587    2.0254   27.5043 C   0  0  0  0  0  0  0  0  0  0  0  0
  -10.0535    2.3534   27.5126 C   0  0  0  0  0  0  0  0  0  0  0  0
   -8.7612    1.7909   27.6094 C   0  0  0  0  0  0  0  0  0  0  0  0
   -5.2554    2.7106   28.0971 C   0  0  0  0  0  0  0  0  0  0  0  0
   -6.1517    0.6537   27.1295 C   0  0  0  0  0  0  0  0  0  0  0  0
   -4.9027    0.0672   27.3240 C   0  0  0  0  0  0  0  0  0  0  0  0
   -3.8205    0.7436   27.8431 C   0  0  0  0  0  0  0  0  0  0  0  0
   -4.0511    2.0999   28.2691 C   0  0  0  0  0  0  0  0  0  0  0  0
   -9.1643    5.9516   26.7143 C   0  0  0  0  0  0  0  0  0  0  0  0
   -8.8121    6.9991   26.9879 N   0  0  0  0  0  0  0  0  0  0  0  0
  -11.2417    1.5772   27.7854 C   0  0  0  0  0  0  0  0  0  0  0  0
  -12.2509    2.1009   28.4379 C   0  0  0  0  0  0  0  0  0  0  0  0
  -13.4173    1.3157   28.8087 C   0  0  0  0  0  0  0  0  0  0  0  0
  4  5  1  0
  2 13  1  0
 13 14  3  0
  6 15  1  0
 15 16  2  3
 16 17  1  0
  1  2  2  0
  2  3  1  0
  3  6  2  0
  6  7  1  0
  7  4  2  0
  4  1  1  0
  5  8  2  0
  8 12  1  0
 12 11  2  0
 11 10  1  0
 10  9  2  0
  9  5  1  0
M  END
$$$$
