No_7308-complexes_sdf/6BKW-FPZ/2024-09-17-14-21-01/
     RDKit          3D

 25 27  0  0  0  0  0  0  0  0999 V2000
   -7.9040    3.9820   27.1177 C   0  0  0  0  0  0  0  0  0  0  0  0
   -8.2057    2.8231   26.8733 C   0  0  0  0  0  0  0  0  0  0  0  0
   -8.7695    5.0740   26.7916 C   0  0  0  0  0  0  0  0  0  0  0  0
   -9.9618    4.7598   26.1630 C   0  0  0  0  0  0  0  0  0  0  0  0
   -9.4200    2.4524   26.2849 C   0  0  0  0  0  0  0  0  0  0  0  0
  -10.2590    3.4815   25.9250 C   0  0  0  0  0  0  0  0  0  0  0  0
   -8.4077    6.3768   27.0642 N   0  0  0  0  0  0  0  0  0  0  0  0
   -8.2408    6.9541   28.1747 C   0  0  0  0  0  0  0  0  0  0  0  0
   -8.5093    7.3021   25.8880 C   0  0  0  0  0  0  0  0  0  0  0  0
   -7.2876    1.6603   27.3126 C   0  0  0  0  0  0  0  0  0  0  0  0
   -6.3867    2.0219   28.1134 F   0  0  0  0  0  0  0  0  0  0  0  0
   -7.1848    0.8149   26.4219 F   0  0  0  0  0  0  0  0  0  0  0  0
  -11.4802    3.1573   25.1454 C   0  0  0  0  0  0  0  0  0  0  0  0
  -11.6433    3.6607   23.9377 C   0  0  0  0  0  0  0  0  0  0  0  0
  -12.7995    3.4344   23.1335 C   0  0  0  0  0  0  0  0  0  0  0  0
  -12.7919    3.7615   21.8283 C   0  0  0  0  0  0  0  0  0  0  0  0
  -11.6457    4.4892   21.2148 C   0  0  0  0  0  0  0  0  0  0  0  0
  -10.5910    4.7837   22.0494 C   0  0  0  0  0  0  0  0  0  0  0  0
  -10.4988    4.3708   23.2882 C   0  0  0  0  0  0  0  0  0  0  0  0
  -11.7395    1.6310   25.1446 C   0  0  0  0  0  0  0  0  0  0  0  0
  -12.9342    1.2836   25.7556 C   0  0  0  0  0  0  0  0  0  0  0  0
  -13.2333   -0.1218   25.7872 C   0  0  0  0  0  0  0  0  0  0  0  0
  -12.3215   -1.0163   25.2341 C   0  0  0  0  0  0  0  0  0  0  0  0
  -11.1756   -0.6148   24.6303 C   0  0  0  0  0  0  0  0  0  0  0  0
  -10.8591    0.7376   24.6235 C   0  0  0  0  0  0  0  0  0  0  0  0
  3  7  1  0
  7  8  1  0
  7  9  1  0
  2 10  1  0
 10 11  1  0
 10 12  1  0
  6 13  1  0
 13 20  1  0
 13 14  1  0
 14 15  2  0
 15 16  1  0
 16 17  2  0
 17 18  1  0
 18 19  2  0
 19 14  1  0
  1  2  2  0
  2  5  1  0
  5  6  2  0
  6  4  1  0
  4  3  2  0
  3  1  1  0
 20 21  2  0
 21 22  1  0
 22 23  2  0
 23 24  1  0
 24 25  2  0
 25 20  1  0
M  END
$$$$
