No_711-complexes_sdf/6BKW-FPZ/2024-09-17-14-21-01/
     RDKit          3D

 21 23  0  0  0  0  0  0  0  0999 V2000
   -7.7129    4.2099   27.0854 C   0  0  0  0  0  0  0  0  0  0  0  0
   -8.9133    4.4736   27.0998 C   0  0  0  0  0  0  0  0  0  0  0  0
   -9.4643    5.5426   27.7628 C   0  0  0  0  0  0  0  0  0  0  0  0
   -7.2009    2.9448   26.6134 C   0  0  0  0  0  0  0  0  0  0  0  0
   -8.1365    1.9533   26.2981 C   0  0  0  0  0  0  0  0  0  0  0  0
   -9.4501    2.2651   26.2497 C   0  0  0  0  0  0  0  0  0  0  0  0
   -9.8615    3.4703   26.6763 C   0  0  0  0  0  0  0  0  0  0  0  0
   -7.5886    0.6540   25.9006 C   0  0  0  0  0  0  0  0  0  0  0  0
   -7.8476    0.2277   24.8208 O   0  0  0  0  0  0  0  0  0  0  0  0
   -6.8219   -0.0384   26.8333 N   0  0  0  0  0  0  0  0  0  0  0  0
   -6.2587   -1.3020   26.5681 C   0  0  0  0  0  0  0  0  0  0  0  0
   -6.0477   -1.9848   27.5490 C   0  0  0  0  0  0  0  0  0  0  0  0
   -5.9896   -1.4214   28.9304 C   0  0  0  0  0  0  0  0  0  0  0  0
   -6.3177   -0.0633   29.0481 C   0  0  0  0  0  0  0  0  0  0  0  0
   -6.8000    0.5485   28.0714 C   0  0  0  0  0  0  0  0  0  0  0  0
   -5.4959   -2.1916   30.1082 C   0  0  0  0  0  0  0  0  0  0  0  0
   -6.4370   -2.4153   31.1158 C   0  0  0  0  0  0  0  0  0  0  0  0
   -5.9404   -2.4503   32.4202 C   0  0  0  0  0  0  0  0  0  0  0  0
   -4.5408   -2.5575   32.6477 C   0  0  0  0  0  0  0  0  0  0  0  0
   -3.6739   -2.3261   31.5956 C   0  0  0  0  0  0  0  0  0  0  0  0
   -4.1440   -1.9972   30.3298 C   0  0  0  0  0  0  0  0  0  0  0  0
  5  8  1  0
  8  9  2  0
  8 10  1  0
 10 11  1  0
 12 13  1  0
 10 15  1  0
 14 15  1  0
 13 16  1  0
  3  2  1  0
 11 12  1  0
 13 14  1  0
  1  2  2  0
  2  7  1  0
  7  6  2  0
  6  5  1  0
  5  4  2  0
  4  1  1  0
 16 17  2  0
 17 18  1  0
 18 19  2  0
 19 20  1  0
 20 21  2  0
 21 16  1  0
M  END
$$$$
