No_7266-complexes_sdf/6BKW-FPZ/2024-09-17-14-21-01/
     RDKit          3D

 15 16  0  0  0  0  0  0  0  0999 V2000
   -7.9040    3.9820   27.1177 C   0  0  0  0  0  0  0  0  0  0  0  0
   -7.8663    4.8694   27.9238 C   0  0  0  0  0  0  0  0  0  0  0  0
   -7.4698    2.6989   27.4277 C   0  0  0  0  0  0  0  0  0  0  0  0
   -6.1691    2.6024   27.7920 C   0  0  0  0  0  0  0  0  0  0  0  0
   -8.5251    6.1376   27.6596 C   0  0  0  0  0  0  0  0  0  0  0  0
   -8.9050    4.1209   26.0890 C   0  0  0  0  0  0  0  0  0  0  0  0
   -9.5368    5.3333   25.8064 C   0  0  0  0  0  0  0  0  0  0  0  0
   -9.3032    6.3984   26.6347 C   0  0  0  0  0  0  0  0  0  0  0  0
   -5.5024    1.2458   27.8628 C   0  0  0  0  0  0  0  0  0  0  0  0
   -6.2954    0.1488   27.7128 C   0  0  0  0  0  0  0  0  0  0  0  0
   -7.9832    1.4096   27.0292 C   0  0  0  0  0  0  0  0  0  0  0  0
   -7.5207    0.2635   27.2067 C   0  0  0  0  0  0  0  0  0  0  0  0
   -4.2229    1.2463   28.4057 N   0  0  0  0  0  0  0  0  0  0  0  0
   -3.5424    0.1012   28.6619 C   0  0  0  0  0  0  0  0  0  0  0  0
   -4.0686   -1.0456   28.6414 C   0  0  0  0  0  0  0  0  0  0  0  0
  1  3  1  0
  9 13  1  0
 13 14  2  3
 14 15  1  0
  1  2  2  0
  2  5  1  0
  5  8  2  0
  8  7  1  0
  7  6  2  0
  6  1  1  0
  3  4  2  0
  4  9  1  0
  9 10  2  0
 10 12  1  0
 12 11  2  0
 11  3  1  0
M  END
$$$$
