No_7316-complexes_sdf/6BKW-FPZ/2024-09-17-14-21-01/
     RDKit          3D

 14 15  0  0  0  0  0  0  0  0999 V2000
   -7.9040    3.9820   27.1177 C   0  0  0  0  0  0  0  0  0  0  0  0
   -9.0711    4.3164   27.0630 C   0  0  0  0  0  0  0  0  0  0  0  0
   -9.9692    3.7224   26.1073 C   0  0  0  0  0  0  0  0  0  0  0  0
   -7.4776    2.6994   26.6283 C   0  0  0  0  0  0  0  0  0  0  0  0
   -8.4406    1.9440   25.9776 C   0  0  0  0  0  0  0  0  0  0  0  0
   -9.6379    2.5001   25.6881 C   0  0  0  0  0  0  0  0  0  0  0  0
   -7.0025    4.5948   27.9221 F   0  0  0  0  0  0  0  0  0  0  0  0
  -10.6113    1.7254   24.8406 C   0  0  0  0  0  0  0  0  0  0  0  0
  -10.7870    2.0238   23.6294 C   0  0  0  0  0  0  0  0  0  0  0  0
  -11.6844    1.3127   22.7309 C   0  0  0  0  0  0  0  0  0  0  0  0
  -11.8705    1.7191   21.3779 C   0  0  0  0  0  0  0  0  0  0  0  0
  -11.1449    2.8423   21.0494 C   0  0  0  0  0  0  0  0  0  0  0  0
  -10.2820    3.5487   21.7378 C   0  0  0  0  0  0  0  0  0  0  0  0
  -10.0918    3.2272   23.0212 C   0  0  0  0  0  0  0  0  0  0  0  0
  1  7  1  0
  6  8  1  0
  8  9  1  0
  1  2  2  0
  2  3  1  0
  3  6  2  0
  6  5  1  0
  5  4  2  0
  4  1  1  0
  9 10  2  0
 10 11  1  0
 11 12  2  0
 12 13  1  0
 13 14  2  0
 14  9  1  0
M  END
$$$$
