No_7609-complexes_sdf/6BKW-FPZ/2024-09-17-14-21-01/
     RDKit          3D

 20 22  0  0  0  0  0  0  0  0999 V2000
   -7.7129    4.2099   27.0854 C   0  0  0  0  0  0  0  0  0  0  0  0
   -8.2112    3.0637   26.9225 C   0  0  0  0  0  0  0  0  0  0  0  0
   -9.4446    2.8304   26.1868 C   0  0  0  0  0  0  0  0  0  0  0  0
   -8.4697    5.3956   26.7238 C   0  0  0  0  0  0  0  0  0  0  0  0
   -9.6172    5.2111   25.9513 C   0  0  0  0  0  0  0  0  0  0  0  0
  -10.0424    3.9782   25.6873 C   0  0  0  0  0  0  0  0  0  0  0  0
   -7.9172    6.7181   27.0124 C   0  0  0  0  0  0  0  0  0  0  0  0
   -7.3707    6.8438   28.1449 N   0  0  0  0  0  0  0  0  0  0  0  0
   -8.0659    7.8056   26.2385 N   0  0  0  0  0  0  0  0  0  0  0  0
   -7.3788    1.6188   27.4809 Cl  0  0  0  0  0  0  0  0  0  0  0  0
  -11.5969    3.7873   24.6593 Br  0  0  0  0  0  0  0  0  0  0  0  0
   -7.0868    5.7965   28.8990 C   0  0  0  0  0  0  0  0  0  0  0  0
   -6.4757    5.9681   29.9575 F   0  0  0  0  0  0  0  0  0  0  0  0
   -7.2548    4.4587   28.4215 C   0  0  0  0  0  0  0  0  0  0  0  0
   -9.8316    1.4860   25.6977 C   0  0  0  0  0  0  0  0  0  0  0  0
   -9.1352    0.7786   24.8144 C   0  0  0  0  0  0  0  0  0  0  0  0
   -9.4676   -0.4162   24.3098 C   0  0  0  0  0  0  0  0  0  0  0  0
  -10.6863   -0.9416   24.7404 C   0  0  0  0  0  0  0  0  0  0  0  0
  -11.4310   -0.2489   25.6781 C   0  0  0  0  0  0  0  0  0  0  0  0
  -11.0270    0.9863   26.2016 C   0  0  0  0  0  0  0  0  0  0  0  0
  7  9  1  0
  2 10  1  0
  6 11  1  0
 12 13  1  0
  3 15  1  0
 15 16  2  0
 16 17  1  0
 17 18  2  0
 18 19  1  0
 19 20  2  0
 20 15  1  0
  1  2  2  0
  2  3  1  0
  3  6  2  0
  6  5  1  0
  5  4  2  0
  1  4  1  0
  4  7  1  0
  7  8  2  0
  8 12  1  0
 12 14  2  0
 14  1  1  0
M  END
$$$$
