No_7777-complexes_sdf/6BKW-FPZ/2024-09-17-14-21-01/
     RDKit          3D

 24 26  0  0  0  0  0  0  0  0999 V2000
   -7.7129    4.2099   27.0854 C   0  0  0  0  0  0  0  0  0  0  0  0
   -7.7814    5.1722   27.8972 C   0  0  0  0  0  0  0  0  0  0  0  0
   -8.7889    3.2468   27.2220 C   0  0  0  0  0  0  0  0  0  0  0  0
   -9.8671    3.4455   28.0317 C   0  0  0  0  0  0  0  0  0  0  0  0
   -6.7610    6.2613   27.8235 C   0  0  0  0  0  0  0  0  0  0  0  0
   -9.9727    4.7307   28.7310 C   0  0  0  0  0  0  0  0  0  0  0  0
   -8.9049    5.5883   28.5786 C   0  0  0  0  0  0  0  0  0  0  0  0
   -8.4972    1.9655   26.4298 C   0  0  0  0  0  0  0  0  0  0  0  0
   -9.3496    1.7459   25.3420 C   0  0  0  0  0  0  0  0  0  0  0  0
  -10.1875    2.7332   24.8511 C   0  0  0  0  0  0  0  0  0  0  0  0
  -10.8479    2.5525   23.5952 C   0  0  0  0  0  0  0  0  0  0  0  0
  -11.6350    3.6063   23.0329 C   0  0  0  0  0  0  0  0  0  0  0  0
  -11.5753    4.8627   23.7351 C   0  0  0  0  0  0  0  0  0  0  0  0
  -10.8315    4.9981   24.8696 C   0  0  0  0  0  0  0  0  0  0  0  0
  -10.1395    4.0779   25.4023 C   0  0  0  0  0  0  0  0  0  0  0  0
   -7.5681    1.0528   26.9722 C   0  0  0  0  0  0  0  0  0  0  0  0
   -6.5842    1.3352   27.8504 C   0  0  0  0  0  0  0  0  0  0  0  0
   -5.5693    0.3819   28.2521 C   0  0  0  0  0  0  0  0  0  0  0  0
   -5.8057   -0.9652   27.9499 C   0  0  0  0  0  0  0  0  0  0  0  0
   -7.8337   -0.3519   26.6512 C   0  0  0  0  0  0  0  0  0  0  0  0
   -6.9128   -1.3274   27.1482 C   0  0  0  0  0  0  0  0  0  0  0  0
   -4.4505    0.8148   29.0946 C   0  0  0  0  0  0  0  0  0  0  0  0
   -3.4387    1.2938   28.6173 N   0  0  0  0  0  0  0  0  0  0  0  0
   -4.4779    0.5068   30.3712 O   0  0  0  0  0  0  0  0  0  0  0  0
  2  5  1  0
  3  8  1  0
  8  9  2  3
  9 10  1  0
  8 16  1  0
 18 22  1  0
 22 23  1  0
 22 24  2  0
 16 17  2  0
 17 18  1  0
 18 19  2  0
 19 21  1  0
 21 20  2  0
 20 16  1  0
 10 11  2  0
 11 12  1  0
 12 13  2  0
 13 14  1  0
 14 15  2  0
 15 10  1  0
  1  2  2  0
  2  7  1  0
  7  6  2  0
  6  4  1  0
  4  3  2  0
  3  1  1  0
M  END
$$$$
