No_7733-complexes_sdf/6BKW-FPZ/2024-09-17-14-21-01/
     RDKit          3D

 12 13  0  0  0  0  0  0  0  0999 V2000
   -7.9040    3.9820   27.1177 C   0  0  0  0  0  0  0  0  0  0  0  0
   -7.8663    4.8694   27.9238 C   0  0  0  0  0  0  0  0  0  0  0  0
   -9.0491    3.8523   26.2542 C   0  0  0  0  0  0  0  0  0  0  0  0
   -8.7661    5.9491   27.9690 C   0  0  0  0  0  0  0  0  0  0  0  0
   -9.9295    4.8502   26.2323 C   0  0  0  0  0  0  0  0  0  0  0  0
   -9.8077    5.9288   27.0933 C   0  0  0  0  0  0  0  0  0  0  0  0
   -9.2993    2.7337   25.3516 C   0  0  0  0  0  0  0  0  0  0  0  0
  -10.1403    2.8043   24.2940 C   0  0  0  0  0  0  0  0  0  0  0  0
  -10.3300    1.7169   23.4505 C   0  0  0  0  0  0  0  0  0  0  0  0
   -9.4885    0.5548   23.6263 C   0  0  0  0  0  0  0  0  0  0  0  0
   -8.4697    1.5897   25.3972 C   0  0  0  0  0  0  0  0  0  0  0  0
   -8.5745    0.5364   24.6082 C   0  0  0  0  0  0  0  0  0  0  0  0
  3  7  1  0
  7  8  2  0
  8  9  1  0
  9 10  2  0
 10 12  1  0
 12 11  2  0
 11  7  1  0
  1  2  2  0
  2  4  1  0
  4  6  2  0
  6  5  1  0
  5  3  2  0
  3  1  1  0
M  END
$$$$
