No_7427-complexes_sdf/6BKW-FPZ/2024-09-17-14-21-01/
     RDKit          3D

 38 42  0  0  0  0  0  0  0  0999 V2000
   -7.7129    4.2099   27.0854 C   0  0  0  0  0  0  0  0  0  0  0  0
   -8.2112    3.0637   26.9225 C   0  0  0  0  0  0  0  0  0  0  0  0
   -7.0021    4.5281   28.2396 C   0  0  0  0  0  0  0  0  0  0  0  0
   -9.4237    2.7810   26.2714 C   0  0  0  0  0  0  0  0  0  0  0  0
   -9.8631    3.8236   25.4749 C   0  0  0  0  0  0  0  0  0  0  0  0
   -9.3184    5.1096   25.5970 C   0  0  0  0  0  0  0  0  0  0  0  0
   -8.3387    5.3452   26.4521 C   0  0  0  0  0  0  0  0  0  0  0  0
  -10.9632    3.7664   24.4236 C   0  0  0  0  0  0  0  0  0  0  0  0
  -10.6777    3.9123   23.1328 C   0  0  0  0  0  0  0  0  0  0  0  0
  -11.6433    3.7748   22.1227 C   0  0  0  0  0  0  0  0  0  0  0  0
  -12.2394    3.4358   24.8592 C   0  0  0  0  0  0  0  0  0  0  0  0
  -13.2628    3.2960   23.8650 C   0  0  0  0  0  0  0  0  0  0  0  0
  -12.9415    3.4976   22.5243 C   0  0  0  0  0  0  0  0  0  0  0  0
   -6.9876    5.7484   28.7332 N   0  0  0  0  0  0  0  0  0  0  0  0
   -7.9975    6.6241   26.9396 C   0  0  0  0  0  0  0  0  0  0  0  0
   -7.2854    6.7617   28.0970 N   0  0  0  0  0  0  0  0  0  0  0  0
   -8.4976    7.7882   26.4208 N   0  0  0  0  0  0  0  0  0  0  0  0
   -7.6102    1.8284   27.6118 C   0  0  0  0  0  0  0  0  0  0  0  0
   -6.1833    1.6169   27.4063 C   0  0  0  0  0  0  0  0  0  0  0  0
   -5.5816    0.4761   27.9533 C   0  0  0  0  0  0  0  0  0  0  0  0
   -6.2419   -0.7380   28.0739 C   0  0  0  0  0  0  0  0  0  0  0  0
   -5.6908   -1.8266   28.6419 C   0  0  0  0  0  0  0  0  0  0  0  0
   -4.3355   -1.7033   29.1003 C   0  0  0  0  0  0  0  0  0  0  0  0
   -3.6232   -0.5375   28.9352 C   0  0  0  0  0  0  0  0  0  0  0  0
   -4.2184    0.5543   28.4235 C   0  0  0  0  0  0  0  0  0  0  0  0
   -3.5004   -3.1334   29.8558 P   0  0  2  0  0  0  0  0  0  0  0  0
   -3.9841   -3.8855   30.5218 O   0  0  0  0  0  0  0  0  0  0  0  0
   -2.3001   -2.3535   30.5690 O   0  0  0  0  0  0  0  0  0  0  0  0
   -2.7878   -3.6635   28.5231 O   0  0  0  0  0  0  0  0  0  0  0  0
   -5.0610   -4.6341   30.1965 C   0  0  0  0  0  0  0  0  0  0  0  0
   -5.1830   -5.5023   29.3388 C   0  0  0  0  0  0  0  0  0  0  0  0
   -5.6350   -6.5894   29.6536 C   0  0  0  0  0  0  0  0  0  0  0  0
   -6.6056   -6.7571   30.7484 C   0  0  0  0  0  0  0  0  0  0  0  0
   -6.5327   -5.8010   31.7699 C   0  0  0  0  0  0  0  0  0  0  0  0
   -6.0028   -4.5657   31.4205 C   0  0  0  0  0  0  0  0  0  0  0  0
   -7.3013   -8.0031   30.9860 C   0  0  0  0  0  0  0  0  0  0  0  0
   -7.9670   -8.2389   31.8993 O   0  0  0  0  0  0  0  0  0  0  0  0
   -7.2129   -8.9132   30.0624 O   0  0  0  0  0  0  0  0  0  0  0  0
  5  8  1  0
 15 17  1  0
  2 18  1  0
 18 19  2  3
 19 20  1  0
 23 26  1  0
 26 27  1  0
 26 28  1  1
 26 29  2  0
 27 30  1  0
 33 36  1  0
 36 37  1  0
 36 38  2  0
  8  9  2  0
  9 10  1  0
 10 13  2  0
 13 12  1  0
 12 11  2  0
 11  8  1  0
 30 31  2  0
 31 32  1  0
 32 33  2  0
 33 34  1  0
 34 35  2  0
 35 30  1  0
  1  3  2  0
  3 14  1  0
 14 16  2  0
 16 15  1  0
 15  7  2  0
 20 21  2  0
 21 22  1  0
 22 23  2  0
 23 24  1  0
 24 25  2  0
 25 20  1  0
  1  2  1  0
  2  4  2  0
  4  5  1  0
  5  6  2  0
  6  7  1  0
  7  1  1  0
M  END
$$$$
