No_7290-complexes_sdf/6BKW-FPZ/2024-09-17-14-21-01/
     RDKit          3D

 14 15  0  0  0  0  0  0  0  0999 V2000
   -7.7129    4.2099   27.0854 C   0  0  0  0  0  0  0  0  0  0  0  0
   -8.9133    4.4736   27.0998 C   0  0  0  0  0  0  0  0  0  0  0  0
   -9.4643    5.5426   27.7628 C   0  0  0  0  0  0  0  0  0  0  0  0
   -6.8373    4.9942   27.9785 C   0  0  0  0  0  0  0  0  0  0  0  0
   -7.3717    6.0428   28.6744 C   0  0  0  0  0  0  0  0  0  0  0  0
   -8.6869    6.3937   28.5345 C   0  0  0  0  0  0  0  0  0  0  0  0
   -9.8077    3.6184   26.2213 C   0  0  0  0  0  0  0  0  0  0  0  0
   -9.9184    4.0253   24.8835 C   0  0  0  0  0  0  0  0  0  0  0  0
  -10.5346    3.2895   23.9116 C   0  0  0  0  0  0  0  0  0  0  0  0
  -10.5422    3.7351   22.5617 C   0  0  0  0  0  0  0  0  0  0  0  0
  -10.3887    2.4895   26.6367 C   0  0  0  0  0  0  0  0  0  0  0  0
  -11.0785    1.6689   25.6886 C   0  0  0  0  0  0  0  0  0  0  0  0
  -11.1396    2.0997   24.3062 C   0  0  0  0  0  0  0  0  0  0  0  0
  -10.1782    2.8873   21.5044 C   0  0  0  0  0  0  0  0  0  0  0  0
  2  7  1  0
  9 10  1  0
 10 14  1  0
  1  2  2  0
  2  3  1  0
  3  6  2  0
  6  5  1  0
  5  4  2  0
  4  1  1  0
  7  8  2  0
  8  9  1  0
  9 13  2  0
 13 12  1  0
 12 11  2  0
 11  7  1  0
M  END
$$$$
