No_7074-complexes_sdf/6BKW-FPZ/2024-09-17-14-21-01/
     RDKit          3D

 40 44  0  0  0  0  0  0  0  0999 V2000
   -7.7129    4.2099   27.0854 C   0  0  0  0  0  0  0  0  0  0  0  0
   -8.9133    4.4736   27.0998 C   0  0  0  0  0  0  0  0  0  0  0  0
   -9.4643    5.5426   27.7628 C   0  0  0  0  0  0  0  0  0  0  0  0
   -7.2009    2.9448   26.6134 C   0  0  0  0  0  0  0  0  0  0  0  0
   -8.1365    1.9533   26.2981 C   0  0  1  0  0  0  0  0  0  0  0  0
   -9.4501    2.2651   26.2497 C   0  0  2  0  0  0  0  0  0  0  0  0
   -9.8615    3.4703   26.6763 C   0  0  2  0  0  0  0  0  0  0  0  0
   -7.5839    0.6450   25.9087 C   0  0  0  0  0  0  0  0  0  0  0  0
   -7.7259    0.2664   24.7999 O   0  0  0  0  0  0  0  0  0  0  0  0
   -6.7487    0.1119   26.7723 O   0  0  0  0  0  0  0  0  0  0  0  0
   -6.0921   -1.0059   26.6866 C   0  0  0  0  0  0  0  0  0  0  0  0
   -5.7457   -1.6393   27.8212 C   0  0  0  0  0  0  0  0  0  0  0  0
   -5.2627   -2.5969   27.9237 C   0  0  0  0  0  0  0  0  0  0  0  0
   -4.9107   -3.2494   29.2238 C   0  0  0  0  0  0  0  0  0  0  0  0
   -5.2216   -2.5894   30.4395 C   0  0  0  0  0  0  0  0  0  0  0  0
   -5.8316   -1.3030   30.3297 C   0  0  0  0  0  0  0  0  0  0  0  0
   -6.0674   -0.8135   29.0874 C   0  0  0  0  0  0  0  0  0  0  0  0
   -4.8570   -3.0964   31.7696 C   0  0  0  0  0  0  0  0  0  0  0  0
   -5.7411   -3.4934   32.4590 O   0  0  0  0  0  0  0  0  0  0  0  0
   -3.5655   -3.1187   32.1283 N   0  0  0  0  0  0  0  0  0  0  0  0
   -3.1833   -3.5979   33.4712 C   0  0  0  0  0  0  0  0  0  0  0  0
   -2.3332   -2.8011   34.0901 C   0  0  0  0  0  0  0  0  0  0  0  0
   -1.4298   -1.9618   33.4138 C   0  0  0  0  0  0  0  0  0  0  0  0
   -1.8251   -1.5403   32.0783 C   0  0  0  0  0  0  0  0  0  0  0  0
   -2.8676   -2.0860   31.5151 C   0  0  0  0  0  0  0  0  0  0  0  0
  -11.2940    3.7654   26.6097 C   0  0  0  0  0  0  0  0  0  0  0  0
  -11.9216    3.8425   27.8764 C   0  0  0  0  0  0  0  0  0  0  0  0
  -12.0701    3.8932   25.5029 C   0  0  0  0  0  0  0  0  0  0  0  0
  -12.8364    3.2645   28.1732 C   0  0  0  0  0  0  0  0  0  0  0  0
  -13.4462    3.6715   25.6789 C   0  0  0  0  0  0  0  0  0  0  0  0
  -13.9429    3.4543   27.0425 C   0  0  0  0  0  0  0  0  0  0  0  0
   -8.4052    6.6722   27.8142 C   0  0  0  0  0  0  0  0  0  0  0  0
  -11.5383    4.1178   24.2091 C   0  0  0  0  0  0  0  0  0  0  0  0
  -10.2159    4.5256   23.9492 C   0  0  0  0  0  0  0  0  0  0  0  0
  -12.4423    4.0149   23.1025 C   0  0  0  0  0  0  0  0  0  0  0  0
  -11.9291    4.2549   21.8059 C   0  0  0  0  0  0  0  0  0  0  0  0
  -10.5779    4.5194   21.6213 C   0  0  0  0  0  0  0  0  0  0  0  0
   -9.7168    4.7035   22.7259 C   0  0  0  0  0  0  0  0  0  0  0  0
  -10.2744    1.3502   25.8626 O   0  0  0  0  0  0  0  0  0  0  0  0
  -10.8409    0.5330   26.8044 C   0  0  0  0  0  0  0  0  0  0  0  0
  1  2  1  0
  2  3  2  3
  1  4  1  0
  4  5  1  0
  5  6  1  0
  2  7  1  0
  6  7  1  0
  5  8  1  6
  8  9  2  0
  8 10  1  0
 10 11  1  0
 11 12  1  0
 15 18  1  0
 18 19  1  0
 18 20  1  0
 20 21  1  0
 22 23  1  0
 20 25  1  0
 24 25  1  0
  7 26  1  6
  3 32  1  0
 28 33  1  0
  6 39  1  1
 39 40  1  0
 21 22  1  0
 23 24  1  0
 12 13  2  0
 13 14  1  0
 14 15  2  0
 15 16  1  0
 16 17  2  0
 17 12  1  0
 33 34  2  0
 34 38  1  0
 38 37  2  0
 37 36  1  0
 36 35  2  0
 35 33  1  0
 26 27  2  0
 27 29  1  0
 29 31  2  0
 31 30  1  0
 30 28  2  0
 28 26  1  0
M  END
$$$$
