No_784-complexes_sdf/6BKW-FPZ/2024-09-17-14-21-01/
     RDKit          3D

 18 20  0  0  0  0  0  0  0  0999 V2000
   -7.9040    3.9820   27.1177 C   0  0  0  0  0  0  0  0  0  0  0  0
   -9.0711    4.3164   27.0630 C   0  0  0  0  0  0  0  0  0  0  0  0
  -10.0395    3.8218   27.1938 C   0  0  0  0  0  0  0  0  0  0  0  0
   -7.6424    2.5858   27.3610 C   0  0  0  0  0  0  0  0  0  0  0  0
   -8.7646    1.7754   27.4263 C   0  0  0  0  0  0  0  0  0  0  0  0
   -9.9966    2.3406   27.3957 C   0  0  0  0  0  0  0  0  0  0  0  0
   -6.0600    1.9631   27.3980 Cl  0  0  0  0  0  0  0  0  0  0  0  0
   -8.9050    5.9713   26.8415 C   0  0  0  0  0  0  0  0  0  0  0  0
   -9.5060    6.6056   25.9005 N   0  0  0  0  0  0  0  0  0  0  0  0
   -7.9100    6.7203   27.4888 N   0  0  0  0  0  0  0  0  0  0  0  0
   -8.0318    7.9499   26.8495 N   0  0  0  0  0  0  0  0  0  0  0  0
   -8.9882    7.8290   26.0096 N   0  0  0  0  0  0  0  0  0  0  0  0
  -11.2191    1.5415   27.6302 C   0  0  0  0  0  0  0  0  0  0  0  0
  -12.1553    2.0100   28.4330 C   0  0  0  0  0  0  0  0  0  0  0  0
  -13.3224    1.2108   28.7706 C   0  0  0  0  0  0  0  0  0  0  0  0
  -13.3594   -0.0527   28.2046 C   0  0  0  0  0  0  0  0  0  0  0  0
  -11.4064    0.2228   27.2417 C   0  0  0  0  0  0  0  0  0  0  0  0
  -12.4271   -0.5429   27.5018 C   0  0  0  0  0  0  0  0  0  0  0  0
  4  7  1  0
  2  8  1  0
  8  9  2  0
  8 10  1  0
 10 11  1  0
  9 12  1  0
 11 12  1  0
  6 13  1  0
  1  2  2  0
  2  3  1  0
  3  6  2  0
  6  5  1  0
  5  4  2  0
  4  1  1  0
 13 14  2  0
 14 15  1  0
 15 16  2  0
 16 18  1  0
 18 17  2  0
 17 13  1  0
M  END
$$$$
