No_7148-complexes_sdf/6BKW-FPZ/2024-09-17-14-21-01/
     RDKit          3D

 20 23  0  0  0  0  0  0  0  0999 V2000
   -7.7129    4.2099   27.0854 C   0  0  0  0  0  0  0  0  0  0  0  0
   -8.9133    4.4736   27.0998 C   0  0  0  0  0  0  0  0  0  0  0  0
   -9.4616    5.6470   27.6290 C   0  0  0  0  0  0  0  0  0  0  0  0
   -6.8722    5.1130   27.9248 C   0  0  0  0  0  0  0  0  0  0  0  0
   -7.3801    6.2535   28.4126 C   0  0  0  0  0  0  0  0  0  0  0  0
   -8.6734    6.5530   28.2150 C   0  0  0  0  0  0  0  0  0  0  0  0
   -9.6206    3.3180   26.3996 C   0  0  1  0  0  0  0  0  0  0  0  0
  -10.3540    2.5216   27.2197 C   0  0  0  0  0  0  0  0  0  0  0  0
  -10.3152    1.2176   27.1405 C   0  0  0  0  0  0  0  0  0  0  0  0
  -11.0430    0.3120   28.0440 C   0  0  0  0  0  0  0  0  0  0  0  0
  -11.9676    0.9236   28.9143 C   0  0  0  0  0  0  0  0  0  0  0  0
  -12.0535    2.3298   29.0080 C   0  0  0  0  0  0  0  0  0  0  0  0
  -11.2684    3.1360   28.2166 C   0  0  0  0  0  0  0  0  0  0  0  0
  -10.5567    3.9590   25.3515 C   0  0  0  0  0  0  0  0  0  0  0  0
  -10.3521    3.6478   24.0073 C   0  0  0  0  0  0  0  0  0  0  0  0
   -9.4435    2.6865   23.5872 C   0  0  0  0  0  0  0  0  0  0  0  0
   -8.7345    1.9762   24.7070 C   0  0  0  0  0  0  0  0  0  0  0  0
   -8.8135    2.3649   26.0103 C   0  0  2  0  0  0  0  0  0  0  0  0
   -8.1460    1.7661   26.9384 N   0  0  0  0  0  0  0  0  0  0  0  0
   -8.7371    0.7977   27.2760 C   0  0  0  0  0  0  0  0  0  0  0  0
  7  2  1  1
  7  8  1  0
  7 14  1  0
 15 16  1  0
  7 18  1  0
 18 17  1  1
 18 19  1  0
  9 20  1  0
 20 19  1  0
 14 15  1  0
 16 17  1  0
  8 13  1  0
 13 12  2  0
 12 11  1  0
 11 10  2  0
 10  9  1  0
  9  8  2  0
  1  2  2  0
  2  3  1  0
  3  6  2  0
  6  5  1  0
  5  4  2  0
  4  1  1  0
M  END
$$$$
