No_7305-complexes_sdf/6BKW-FPZ/2024-09-17-14-21-01/
     RDKit          3D

 25 27  0  0  0  0  0  0  0  0999 V2000
   -7.7129    4.2099   27.0854 C   0  0  0  0  0  0  0  0  0  0  0  0
   -7.7814    5.1722   27.8972 C   0  0  0  0  0  0  0  0  0  0  0  0
   -8.8998    3.8713   26.3707 C   0  0  0  0  0  0  0  0  0  0  0  0
   -9.9938    4.6774   26.5446 C   0  0  0  0  0  0  0  0  0  0  0  0
   -8.7789    6.1536   27.9256 C   0  0  0  0  0  0  0  0  0  0  0  0
   -9.9428    5.8398   27.2296 C   0  0  0  0  0  0  0  0  0  0  0  0
   -8.9208    2.6404   25.5721 C   0  0  0  0  0  0  0  0  0  0  0  0
   -8.3122    1.5527   26.0757 N   0  0  0  0  0  0  0  0  0  0  0  0
   -8.1785    0.4130   25.3859 C   0  0  0  0  0  0  0  0  0  0  0  0
   -7.2383   -0.5195   25.8520 C   0  0  0  0  0  0  0  0  0  0  0  0
   -6.8685   -1.6062   25.1636 C   0  0  0  0  0  0  0  0  0  0  0  0
   -7.5532   -1.8591   23.8990 C   0  0  0  0  0  0  0  0  0  0  0  0
   -8.7188    0.1994   24.1410 C   0  0  0  0  0  0  0  0  0  0  0  0
   -8.3904   -0.9056   23.3986 C   0  0  0  0  0  0  0  0  0  0  0  0
   -9.3492    2.7388   24.4052 O   0  0  0  0  0  0  0  0  0  0  0  0
   -6.6109    5.5926   28.5720 O   0  0  0  0  0  0  0  0  0  0  0  0
  -11.2009    4.3265   25.7531 C   0  0  0  0  0  0  0  0  0  0  0  0
  -11.3467    4.5201   24.4913 C   0  0  0  0  0  0  0  0  0  0  0  0
  -12.2302    3.6576   26.4449 C   0  0  0  0  0  0  0  0  0  0  0  0
  -12.5018    4.3301   23.7679 C   0  0  0  0  0  0  0  0  0  0  0  0
  -12.1395    3.3486   27.8578 C   0  0  0  0  0  0  0  0  0  0  0  0
  -13.4249    3.3127   25.9120 C   0  0  0  0  0  0  0  0  0  0  0  0
  -13.5651    3.7494   24.4872 C   0  0  0  0  0  0  0  0  0  0  0  0
  -11.3602    2.3382   28.4284 C   0  0  0  0  0  0  0  0  0  0  0  0
  -12.9040    4.1781   28.7770 C   0  0  0  0  0  0  0  0  0  0  0  0
  3  7  1  0
  7  8  1  0
  8  9  1  0
  7 15  2  0
  2 16  1  0
  4 17  1  0
 19 21  1  0
 21 24  1  0
 21 25  1  0
 17 18  2  0
 18 20  1  0
 20 23  2  0
 23 22  1  0
 22 19  2  0
 19 17  1  0
  1  2  2  0
  2  5  1  0
  5  6  2  0
  6  4  1  0
  4  3  2  0
  3  1  1  0
  9 10  2  0
 10 11  1  0
 11 12  2  0
 12 14  1  0
 14 13  2  0
 13  9  1  0
M  END
$$$$
