No_7443-complexes_sdf/6BKW-FPZ/2024-09-17-14-21-01/
     RDKit          3D

 28 31  0  0  0  0  0  0  0  0999 V2000
   -7.2496    3.8871   27.4508 C   0  0  0  0  0  0  0  0  0  0  0  0
   -7.6161    2.7143   27.1523 C   0  0  0  0  0  0  0  0  0  0  0  0
   -8.6212    2.2239   26.4073 C   0  0  0  0  0  0  0  0  0  0  0  0
   -8.1953    4.9310   27.1292 C   0  0  0  0  0  0  0  0  0  0  0  0
   -9.3500    4.6042   26.4181 C   0  0  0  0  0  0  0  0  0  0  0  0
   -9.5766    3.2803   26.0949 C   0  0  0  0  0  0  0  0  0  0  0  0
   -7.9112    6.3267   27.5068 C   0  0  0  0  0  0  0  0  0  0  0  0
   -8.8257    7.2636   27.1146 N   0  0  0  0  0  0  0  0  0  0  0  0
   -8.8879    0.8958   26.0920 C   0  0  0  0  0  0  0  0  0  0  0  0
   -8.0846    0.0724   26.0643 N   0  0  0  0  0  0  0  0  0  0  0  0
   -7.2370   -0.1170   26.8595 C   0  0  0  0  0  0  0  0  0  0  0  0
   -6.5751   -0.9790   26.9359 C   0  0  0  0  0  0  0  0  0  0  0  0
   -8.2222   -1.1701   25.2809 C   0  0  0  0  0  0  0  0  0  0  0  0
   -6.2767   -1.9802   26.5889 C   0  0  0  0  0  0  0  0  0  0  0  0
   -7.3232   -2.2037   25.3877 C   0  0  0  0  0  0  0  0  0  0  0  0
   -6.8618    6.5921   28.1274 O   0  0  0  0  0  0  0  0  0  0  0  0
  -10.0997    0.6995   25.6686 O   0  0  0  0  0  0  0  0  0  0  0  0
   -9.1302   -1.4828   24.4587 N   0  0  0  0  0  0  0  0  0  0  0  0
   -8.9740   -1.6832   23.1638 C   0  0  0  0  0  0  0  0  0  0  0  0
   -8.1479   -1.7123   22.5228 C   0  0  0  0  0  0  0  0  0  0  0  0
   -7.9998   -1.9591   21.0432 C   0  0  0  0  0  0  0  0  0  0  0  0
   -9.1910   -2.0830   20.3758 C   0  0  0  0  0  0  0  0  0  0  0  0
  -10.3530   -1.9778   21.1033 C   0  0  0  0  0  0  0  0  0  0  0  0
  -10.3396   -1.7552   22.4376 C   0  0  0  0  0  0  0  0  0  0  0  0
   -9.1581   -2.3158   18.9210 C   0  0  0  0  0  0  0  0  0  0  0  0
   -8.1313   -3.0561   18.3709 C   0  0  0  0  0  0  0  0  0  0  0  0
   -6.8206   -2.8556   18.9708 C   0  0  0  0  0  0  0  0  0  0  0  0
   -6.7558   -2.3994   20.3255 C   0  0  0  0  0  0  0  0  0  0  0  0
  4  7  1  0
  7  8  1  0
  3  9  1  0
  9 10  1  0
 10 11  1  0
 10 13  1  0
 12 14  1  0
 13 15  1  0
 14 15  1  0
  7 16  2  0
  9 17  2  0
 13 18  1  0
 18 19  1  0
 11 12  1  0
  1  2  2  0
  2  3  1  0
  3  6  2  0
  6  5  1  0
  5  4  2  0
  4  1  1  0
 22 25  2  0
 25 26  1  0
 26 27  2  0
 27 28  1  0
 28 21  2  0
 19 20  2  0
 20 21  1  0
 21 22  1  0
 22 23  1  0
 23 24  2  0
 24 19  1  0
M  END
$$$$
