No_7754-complexes_sdf/6BKW-FPZ/2024-09-17-14-21-01/
     RDKit          3D

 16 18  0  0  0  0  0  0  0  0999 V2000
   -7.9040    3.9820   27.1177 C   0  0  0  0  0  0  0  0  0  0  0  0
   -7.8663    4.8694   27.9238 C   0  0  0  0  0  0  0  0  0  0  0  0
   -7.4698    2.6989   27.4277 C   0  0  0  0  0  0  0  0  0  0  0  0
   -7.9683    1.5964   26.8266 C   0  0  0  0  0  0  0  0  0  0  0  0
   -8.9447    1.7923   25.8533 C   0  0  0  0  0  0  0  0  0  0  0  0
   -9.4405    2.9988   25.5757 C   0  0  0  0  0  0  0  0  0  0  0  0
   -8.9424    4.1117   26.2388 C   0  0  0  0  0  0  0  0  0  0  0  0
   -8.0525    6.0889   27.7934 N   0  0  0  0  0  0  0  0  0  0  0  0
   -7.4419    0.2917   27.0869 C   0  0  0  0  0  0  0  0  0  0  0  0
   -8.1562   -0.7861   26.9747 C   0  0  0  0  0  0  0  0  0  0  0  0
   -9.3506   -0.6026   26.1142 C   0  0  0  0  0  0  0  0  0  0  0  0
   -9.7143    0.5955   25.5139 C   0  0  0  0  0  0  0  0  0  0  0  0
   -9.4523    5.4051   25.9791 C   0  0  0  0  0  0  0  0  0  0  0  0
   -8.9231    6.4752   26.8113 C   0  0  0  0  0  0  0  0  0  0  0  0
  -10.7578    0.6700   24.5774 C   0  0  0  0  0  0  0  0  0  0  0  0
  -11.9085    0.9521   24.8538 C   0  0  0  0  0  0  0  0  0  0  0  0
  1  3  1  0
  3  4  1  0
  5  6  1  0
  6  7  1  0
 12 15  1  0
 15 16  2  0
  1  2  2  0
  2  8  1  0
  8 14  2  0
 14 13  1  0
 13  7  2  0
  7  1  1  0
  4  5  2  0
  5 12  1  0
 12 11  2  0
 11 10  1  0
 10  9  2  0
  9  4  1  0
M  END
$$$$
