No_7572-complexes_sdf/6BKW-FPZ/2024-09-17-14-21-01/
     RDKit          3D

 31 34  0  0  0  0  0  0  0  0999 V2000
   -7.2496    3.8871   27.4508 C   0  0  0  0  0  0  0  0  0  0  0  0
   -7.6161    2.7143   27.1523 C   0  0  0  0  0  0  0  0  0  0  0  0
   -8.6212    2.2239   26.4073 C   0  0  0  0  0  0  0  0  0  0  0  0
   -8.2540    4.9237   27.1711 C   0  0  0  0  0  0  0  0  0  0  0  0
   -9.3729    4.5806   26.4433 C   0  0  0  0  0  0  0  0  0  0  0  0
   -9.5830    3.2969   26.1026 C   0  0  0  0  0  0  0  0  0  0  0  0
   -7.9303    6.3207   27.5389 C   0  0  0  0  0  0  0  0  0  0  0  0
   -8.1486    7.3079   26.5493 C   0  0  0  0  0  0  0  0  0  0  0  0
   -8.8922    0.8802   26.0685 C   0  0  0  0  0  0  0  0  0  0  0  0
   -9.1222    0.5206   24.9461 C   0  0  0  0  0  0  0  0  0  0  0  0
   -9.9010    0.9493   24.1177 C   0  0  0  0  0  0  0  0  0  0  0  0
  -10.8520    1.9720   24.4352 C   0  0  0  0  0  0  0  0  0  0  0  0
  -10.5769    3.1194   25.0448 C   0  0  0  0  0  0  0  0  0  0  0  0
   -6.3706    1.4748   27.7074 Cl  0  0  0  0  0  0  0  0  0  0  0  0
  -11.3315    4.1574   24.7442 O   0  0  0  0  0  0  0  0  0  0  0  0
  -12.5496    3.9419   24.0284 C   0  0  1  0  0  0  0  0  0  0  0  0
  -13.5999    3.5699   24.8208 C   0  0  0  0  0  0  0  0  0  0  0  0
  -13.5229    3.5488   26.1296 C   0  0  0  0  0  0  0  0  0  0  0  0
  -14.6400    3.1916   27.0082 C   0  0  0  0  0  0  0  0  0  0  0  0
  -14.4370    3.2271   28.4282 C   0  0  0  0  0  0  0  0  0  0  0  0
  -13.1675    3.5505   28.9986 C   0  0  0  0  0  0  0  0  0  0  0  0
  -12.1203    3.9428   28.1498 C   0  0  0  0  0  0  0  0  0  0  0  0
  -12.3209    3.9486   26.8497 C   0  0  0  0  0  0  0  0  0  0  0  0
  -12.6132    4.4134   22.6995 C   0  0  0  0  0  0  0  0  0  0  0  0
  -12.9981    3.5114   30.5036 C   0  0  0  0  0  0  0  0  0  0  0  0
  -12.1605    3.8444   21.8632 C   0  0  0  0  0  0  0  0  0  0  0  0
  -11.4286    2.6940   21.8209 C   0  0  0  0  0  0  0  0  0  0  0  0
  -10.8848    2.1680   20.8779 C   0  0  0  0  0  0  0  0  0  0  0  0
  -10.9287    2.8174   19.5766 C   0  0  0  0  0  0  0  0  0  0  0  0
  -11.6728    3.9823   19.4342 C   0  0  0  0  0  0  0  0  0  0  0  0
  -12.2513    4.5386   20.4766 C   0  0  0  0  0  0  0  0  0  0  0  0
  4  7  1  0
  7  8  1  0
  3  9  1  0
  9 10  1  0
 10 11  2  0
 11 12  1  0
  6 13  1  0
 12 13  2  0
  2 14  1  0
 13 15  1  0
 15 16  1  0
 16 17  1  1
 16 24  1  0
 21 25  1  0
 17 18  1  0
 24 26  1  0
 18 19  2  0
 19 20  1  0
 20 21  2  0
 21 22  1  0
 22 23  2  0
 23 18  1  0
  1  2  2  0
  2  3  1  0
  3  6  2  0
  6  5  1  0
  5  4  2  0
  4  1  1  0
 26 27  2  0
 27 28  1  0
 28 29  2  0
 29 30  1  0
 30 31  2  0
 31 26  1  0
M  END
$$$$
