No_7343-complexes_sdf/6BKW-FPZ/2024-09-17-14-21-01/
     RDKit          3D

 13 13  0  0  0  0  0  0  0  0999 V2000
   -7.2496    3.8871   27.4508 C   0  0  0  0  0  0  0  0  0  0  0  0
   -7.6161    2.7143   27.1523 C   0  0  0  0  0  0  0  0  0  0  0  0
   -8.6212    2.2239   26.4073 C   0  0  0  0  0  0  0  0  0  0  0  0
   -8.2540    4.9237   27.1711 C   0  0  0  0  0  0  0  0  0  0  0  0
   -9.3709    4.6018   26.4511 C   0  0  0  0  0  0  0  0  0  0  0  0
   -9.5922    3.3274   26.0949 C   0  0  0  0  0  0  0  0  0  0  0  0
   -7.9166    6.3279   27.5749 C   0  0  0  0  0  0  0  0  0  0  0  0
  -10.7700    2.9798   25.2771 C   0  0  0  0  0  0  0  0  0  0  0  0
  -11.8998    2.8738   25.7593 C   0  0  0  0  0  0  0  0  0  0  0  0
  -10.5789    2.8199   23.8416 C   0  0  0  0  0  0  0  0  0  0  0  0
   -9.7459    2.5292   23.2011 C   0  0  0  0  0  0  0  0  0  0  0  0
   -9.5968    2.3080   21.7609 C   0  0  0  0  0  0  0  0  0  0  0  0
  -10.6456    2.8235   21.0341 C   0  0  0  0  0  0  0  0  0  0  0  0
  4  7  1  0
  6  8  1  0
  8  9  1  0
  8 10  1  0
 10 11  2  3
 11 12  1  0
 12 13  2  0
  1  2  2  0
  2  3  1  0
  3  6  2  0
  6  5  1  0
  5  4  2  0
  4  1  1  0
M  END
$$$$
