No_7399-complexes_sdf/6BKW-FPZ/2024-09-17-14-21-01/
     RDKit          3D

 21 22  0  0  0  0  0  0  0  0999 V2000
   -7.7129    4.2099   27.0854 C   0  0  0  0  0  0  0  0  0  0  0  0
   -8.2112    3.0637   26.9225 C   0  0  0  0  0  0  0  0  0  0  0  0
   -9.4446    2.8304   26.1868 C   0  0  0  0  0  0  0  0  0  0  0  0
   -8.4697    5.3956   26.7238 C   0  0  0  0  0  0  0  0  0  0  0  0
   -9.6172    5.2111   25.9513 C   0  0  0  0  0  0  0  0  0  0  0  0
  -10.0424    3.9782   25.6873 C   0  0  0  0  0  0  0  0  0  0  0  0
   -7.5594    1.9037   27.3886 N   0  0  0  0  0  0  0  0  0  0  0  0
   -6.9248    0.9711   26.7642 C   0  0  0  0  0  0  0  0  0  0  0  0
   -7.0871    0.7965   25.6535 O   0  0  0  0  0  0  0  0  0  0  0  0
   -6.1483    0.0169   27.6555 C   0  0  0  0  0  0  0  0  0  0  0  0
   -5.1862   -0.3367   27.3441 C   0  0  0  0  0  0  0  0  0  0  0  0
   -4.2298   -1.1753   28.1707 C   0  0  0  0  0  0  0  0  0  0  0  0
   -4.6408   -1.3950   29.5293 C   0  0  0  0  0  0  0  0  0  0  0  0
   -5.8959   -0.8811   29.8480 C   0  0  0  0  0  0  0  0  0  0  0  0
   -6.6155   -0.1784   29.0023 C   0  0  0  0  0  0  0  0  0  0  0  0
   -7.9731    6.7613   27.0343 C   0  0  0  0  0  0  0  0  0  0  0  0
   -8.6240    8.1871   26.5739 Cl  0  0  0  0  0  0  0  0  0  0  0  0
   -3.7986   -2.1704   30.3927 C   0  0  0  0  0  0  0  0  0  0  0  0
   -3.2983   -1.5761   31.3244 C   0  0  0  0  0  0  0  0  0  0  0  0
   -3.2923   -1.2623   32.2843 C   0  0  0  0  0  0  0  0  0  0  0  0
   -3.3444    0.0493   32.9993 C   0  0  0  0  0  0  0  0  0  0  0  0
  2  7  1  0
  7  8  1  0
  8  9  2  0
  8 10  1  0
  4 16  1  0
 16 17  1  0
 13 18  1  0
 18 19  1  0
 19 20  3  0
 20 21  1  0
  1  2  2  0
  2  3  1  0
  3  6  2  0
  6  5  1  0
  5  4  2  0
  4  1  1  0
 10 11  2  0
 11 12  1  0
 12 13  2  0
 13 14  1  0
 14 15  2  0
 15 10  1  0
M  END
$$$$
