No_7929-complexes_sdf/6BKW-FPZ/2024-09-17-14-21-01/
     RDKit          3D

 13 13  0  0  0  0  0  0  0  0999 V2000
   -7.9040    3.9820   27.1177 C   0  0  0  0  0  0  0  0  0  0  0  0
   -9.0711    4.3164   27.0630 C   0  0  0  0  0  0  0  0  0  0  0  0
   -9.8698    3.9665   25.9494 C   0  0  0  0  0  0  0  0  0  0  0  0
   -7.0332    4.5030   28.2025 C   0  0  0  0  0  0  0  0  0  0  0  0
   -9.4357    2.9501   25.1393 C   0  0  0  0  0  0  0  0  0  0  0  0
  -10.2810    2.6266   24.0411 C   0  0  0  0  0  0  0  0  0  0  0  0
   -7.7787    5.4357   28.8257 N   0  0  0  0  0  0  0  0  0  0  0  0
   -9.0362    5.3819   28.0762 C   0  0  0  0  0  0  0  0  0  0  0  0
   -9.9169    1.5195   23.2319 C   0  0  0  0  0  0  0  0  0  0  0  0
  -10.5005    1.2834   21.9923 C   0  0  0  0  0  0  0  0  0  0  0  0
  -10.1050    0.1677   21.2183 C   0  0  0  0  0  0  0  0  0  0  0  0
   -9.0626   -0.6582   21.7051 C   0  0  0  0  0  0  0  0  0  0  0  0
   -8.4242   -0.4040   22.8800 C   0  0  0  0  0  0  0  0  0  0  0  0
  1  2  1  0
  2  3  2  3
  1  4  1  0
  3  5  1  0
  5  6  1  0
  4  7  2  0
  2  8  1  0
  7  8  1  0
  6  9  2  3
  9 10  1  0
 10 11  2  3
 11 12  1  0
 12 13  2  0
M  END
$$$$
