No_7218-complexes_sdf/6BKW-FPZ/2024-09-17-14-21-01/
     RDKit          3D

 40 44  0  0  0  0  0  0  0  0999 V2000
   -7.2496    3.8871   27.4508 C   0  0  0  0  0  0  0  0  0  0  0  0
   -7.6161    2.7143   27.1523 C   0  0  0  0  0  0  0  0  0  0  0  0
   -8.8302    2.4659   26.5056 C   0  0  0  0  0  0  0  0  0  0  0  0
   -8.1584    5.0089   27.3234 C   0  0  0  0  0  0  0  0  0  0  0  0
   -9.3788    4.7965   26.7695 C   0  0  0  0  0  0  0  0  0  0  0  0
   -9.7028    3.5649   26.3276 C   0  0  0  0  0  0  0  0  0  0  0  0
   -6.7190    1.5585   27.3667 C   0  0  0  0  0  0  0  0  0  0  0  0
   -6.9908    0.5234   27.4317 F   0  0  0  0  0  0  0  0  0  0  0  0
   -5.9082    1.9197   28.5156 F   0  0  0  0  0  0  0  0  0  0  0  0
   -7.9091    6.4091   27.8077 C   0  0  0  0  0  0  0  0  0  0  0  0
   -8.5971    7.3836   27.2537 N   0  0  0  0  0  0  0  0  0  0  0  0
  -10.9707    3.3057   25.6156 C   0  0  2  0  0  0  0  0  0  0  0  0
  -11.0045    3.5452   24.1991 C   0  0  0  0  0  0  0  0  0  0  0  0
  -10.8453    2.7081   23.3943 C   0  0  0  0  0  0  0  0  0  0  0  0
  -10.7004    3.0459   21.9604 C   0  0  0  0  0  0  0  0  0  0  0  0
  -10.8094    4.3773   21.5163 C   0  0  0  0  0  0  0  0  0  0  0  0
  -10.9633    5.3274   22.5064 C   0  0  0  0  0  0  0  0  0  0  0  0
  -10.9928    5.0252   23.8406 C   0  0  0  0  0  0  0  0  0  0  0  0
  -12.1326    2.9378   26.2780 C   0  0  2  0  0  0  0  0  0  0  0  0
  -12.3914    3.1744   27.6156 C   0  0  0  0  0  0  0  0  0  0  0  0
  -11.7202    3.4895   28.4844 C   0  0  0  0  0  0  0  0  0  0  0  0
  -12.1875    3.5959   29.9682 C   0  0  0  0  0  0  0  0  0  0  0  0
  -13.5581    3.5166   30.1687 C   0  0  0  0  0  0  0  0  0  0  0  0
  -13.9123    3.2068   27.8506 C   0  0  0  0  0  0  0  0  0  0  0  0
  -14.7877    3.0227   26.6987 C   0  0  0  0  0  0  0  0  0  0  0  0
  -14.3771    3.3567   29.1027 C   0  0  0  0  0  0  0  0  0  0  0  0
  -13.0260    2.1692   25.4466 C   0  0  0  0  0  0  0  0  0  0  0  0
  -14.3645    2.5466   25.5430 C   0  0  1  0  0  0  0  0  0  0  0  0
  -15.2452    2.1201   24.4854 C   0  0  0  0  0  0  0  0  0  0  0  0
  -15.7410    2.9654   23.7679 N   0  0  0  0  0  0  0  0  0  0  0  0
  -15.9421    4.0509   23.9235 C   0  0  0  0  0  0  0  0  0  0  0  0
  -15.5932    5.1950   23.3502 C   0  0  0  0  0  0  0  0  0  0  0  0
  -16.1539    2.4772   22.4026 C   0  0  0  0  0  0  0  0  0  0  0  0
  -15.9223    3.4788   21.3689 C   0  0  0  0  0  0  0  0  0  0  0  0
  -15.9857    4.9313   21.8044 C   0  0  0  0  0  0  0  0  0  0  0  0
  -15.4795    0.8680   24.4046 O   0  0  0  0  0  0  0  0  0  0  0  0
  -13.9551    3.7223   31.5729 C   0  0  0  0  0  0  0  0  0  0  0  0
  -14.6431    4.6336   31.9017 O   0  0  0  0  0  0  0  0  0  0  0  0
  -13.4665    2.8564   32.4859 O   0  0  0  0  0  0  0  0  0  0  0  0
   -6.7894    6.5922   28.3805 O   0  0  0  0  0  0  0  0  0  0  0  0
  2  7  1  0
  7  8  1  0
  7  9  1  0
  4 10  1  0
 10 11  1  0
 12  6  1  1
 12 13  1  0
 12 19  1  0
 19 20  1  0
 24 25  1  0
 19 27  1  1
 25 28  1  0
 27 28  1  0
 28 29  1  1
 29 30  1  0
 30 31  1  0
 30 33  1  0
 32 35  1  0
 34 35  1  0
 29 36  2  0
 23 37  1  0
 37 38  2  0
 37 39  1  0
 10 40  2  0
 31 32  1  0
 34 33  1  0
  1  2  2  0
  2  3  1  0
  3  6  2  0
  6  5  1  0
  5  4  2  0
  4  1  1  0
 20 21  2  0
 21 22  1  0
 22 23  2  0
 23 26  1  0
 26 24  2  0
 24 20  1  0
 13 14  2  0
 14 15  1  0
 15 16  2  0
 16 17  1  0
 17 18  2  0
 18 13  1  0
M  END
$$$$
