No_7055-complexes_sdf/6BKW-FPZ/2024-09-17-14-21-01/
     RDKit          3D

 14 15  0  0  0  0  0  0  0  0999 V2000
   -7.7129    4.2099   27.0854 C   0  0  0  0  0  0  0  0  0  0  0  0
   -8.9133    4.4736   27.0998 C   0  0  0  0  0  0  0  0  0  0  0  0
   -9.7785    3.9136   27.0578 C   0  0  0  0  0  0  0  0  0  0  0  0
   -7.3514    2.8197   27.1958 C   0  0  0  0  0  0  0  0  0  0  0  0
   -8.4036    1.9410   27.1105 C   0  0  0  0  0  0  0  0  0  0  0  0
   -9.6711    2.4461   27.0888 C   0  0  0  0  0  0  0  0  0  0  0  0
   -9.0404    6.1207   27.0156 C   0  0  0  0  0  0  0  0  0  0  0  0
   -8.1431    0.4783   27.2473 C   0  0  0  0  0  0  0  0  0  0  0  0
   -6.8802    0.0427   27.3840 C   0  0  0  0  0  0  0  0  0  0  0  0
   -6.4766   -1.0237   27.6058 C   0  0  0  0  0  0  0  0  0  0  0  0
   -5.0947   -1.3520   27.8655 C   0  0  0  0  0  0  0  0  0  0  0  0
   -4.0918   -0.3760   27.7166 C   0  0  0  0  0  0  0  0  0  0  0  0
   -4.5501    0.8999   27.4219 C   0  0  0  0  0  0  0  0  0  0  0  0
   -5.8660    1.1898   27.3321 C   0  0  0  0  0  0  0  0  0  0  0  0
  2  7  1  0
  5  8  1  0
  8  9  1  0
  1  2  2  0
  2  3  1  0
  3  6  2  0
  6  5  1  0
  5  4  2  0
  4  1  1  0
  9 10  2  0
 10 11  1  0
 11 12  2  0
 12 13  1  0
 13 14  2  0
 14  9  1  0
M  END
$$$$
