No_7915-complexes_sdf/6BKW-FPZ/2024-09-17-14-21-01/
     RDKit          3D

 40 44  0  0  0  0  0  0  0  0999 V2000
   -7.2496    3.8871   27.4508 C   0  0  0  0  0  0  0  0  0  0  0  0
   -7.9379    4.9063   27.8518 C   0  0  0  0  0  0  0  0  0  0  0  0
   -9.3460    4.8223   27.8695 C   0  0  0  0  0  0  0  0  0  0  0  0
   -7.8628    2.6163   27.1065 C   0  0  0  0  0  0  0  0  0  0  0  0
   -9.2787    2.5744   27.1970 C   0  0  0  0  0  0  0  0  0  0  0  0
  -10.0108    3.6770   27.6340 C   0  0  0  0  0  0  0  0  0  0  0  0
  -11.4834    3.5674   27.7432 C   0  0  0  0  0  0  0  0  0  0  0  0
  -11.9395    2.6434   28.4995 C   0  0  0  0  0  0  0  0  0  0  0  0
  -13.3550    2.4593   28.7913 C   0  0  0  0  0  0  0  0  0  0  0  0
  -14.1867    3.4420   28.2483 C   0  0  0  0  0  0  0  0  0  0  0  0
  -13.6865    4.4698   27.4825 C   0  0  0  0  0  0  0  0  0  0  0  0
  -12.3085    4.6362   27.2712 C   0  0  0  0  0  0  0  0  0  0  0  0
   -7.1242    1.4617   26.7667 C   0  0  1  0  0  0  0  0  0  0  0  0
   -6.0745    1.0527   27.5365 N   0  0  0  0  0  0  0  0  0  0  0  0
   -5.3986   -0.0760   27.4066 C   0  0  0  0  0  0  0  0  0  0  0  0
   -5.8169   -0.8649   26.5237 C   0  0  0  0  0  0  0  0  0  0  0  0
   -7.5846    0.5969   25.9966 O   0  0  0  0  0  0  0  0  0  0  0  0
   -6.9762   -0.5705   25.7985 C   0  0  1  0  0  0  0  0  0  0  0  0
   -7.4768    6.1615   28.2428 N   0  0  0  0  0  0  0  0  0  0  0  0
   -4.1941   -0.2158   28.2866 C   0  0  0  0  0  0  0  0  0  0  0  0
   -4.2818   -1.0851   29.3847 C   0  0  0  0  0  0  0  0  0  0  0  0
   -4.4414   -0.8552   30.3937 C   0  0  0  0  0  0  0  0  0  0  0  0
   -4.3566   -0.9681   31.5793 C   0  0  0  0  0  0  0  0  0  0  0  0
   -4.6570   -0.9005   32.9733 C   0  0  0  0  0  0  0  0  0  0  0  0
   -4.7784   -1.0182   34.2887 C   0  0  0  0  0  0  0  0  0  0  0  0
   -7.5395   -1.3936   24.8065 C   0  0  0  0  0  0  0  0  0  0  0  0
   -3.7308   -2.3244   28.9405 C   0  0  0  0  0  0  0  0  0  0  0  0
   -8.3045   -1.2575   24.0581 C   0  0  0  0  0  0  0  0  0  0  0  0
   -9.2450   -0.3115   24.1865 C   0  0  0  0  0  0  0  0  0  0  0  0
  -10.3397    0.0209   23.1518 C   0  0  0  0  0  0  0  0  0  0  0  0
  -10.1754   -0.6439   22.0268 C   0  0  0  0  0  0  0  0  0  0  0  0
   -9.1846   -1.5717   21.7036 C   0  0  0  0  0  0  0  0  0  0  0  0
   -8.2883   -1.8337   22.6729 C   0  0  0  0  0  0  0  0  0  0  0  0
   -4.9363   -1.3765   35.4045 C   0  0  0  0  0  0  0  0  0  0  0  0
   -3.2739   -3.0626   29.9791 C   0  0  0  0  0  0  0  0  0  0  0  0
   -3.6439   -2.5610   31.6950 C   0  0  0  0  0  0  0  0  0  0  0  0
   -5.1144   -1.3726   36.7829 C   0  0  0  0  0  0  0  0  0  0  0  0
   -4.9512   -1.4440   37.7897 C   0  0  0  0  0  0  0  0  0  0  0  0
   -5.2181   -1.2087   39.1391 C   0  0  0  0  0  0  0  0  0  0  0  0
   -4.2413   -1.7598   40.0060 C   0  0  0  0  0  0  0  0  0  0  0  0
  6  7  1  0
 13  4  1  1
 13 14  1  0
 14 15  1  0
 15 16  2  0
 13 17  1  0
 16 18  1  0
 17 18  1  0
  2 19  1  0
 15 20  1  0
 20 21  1  0
 24 25  1  0
 18 26  1  6
 26 28  1  0
 25 34  3  0
 34 37  1  0
 37 38  3  0
 38 39  1  0
 39 40  1  0
 24 23  1  0
 28 29  2  0
 29 30  1  0
 30 31  2  0
 31 32  1  0
 32 33  2  0
 33 28  1  0
  1  2  2  0
  2  3  1  0
  3  6  2  0
  6  5  1  0
  5  4  2  0
  4  1  1  0
  7  8  2  0
  8  9  1  0
  9 10  2  0
 10 11  1  0
 11 12  2  0
 12  7  1  0
 21 22  2  0
 22 23  1  0
 23 36  2  0
 36 35  1  0
 35 27  2  0
 27 21  1  0
M  END
$$$$
