No_7291-complexes_sdf/6BKW-FPZ/2024-09-17-14-21-01/
     RDKit          3D

 13 14  0  0  0  0  0  0  0  0999 V2000
   -7.9040    3.9820   27.1177 C   0  0  0  0  0  0  0  0  0  0  0  0
   -9.0711    4.3164   27.0630 C   0  0  0  0  0  0  0  0  0  0  0  0
   -9.5294    5.4517   27.7215 C   0  0  0  0  0  0  0  0  0  0  0  0
   -9.9845    3.5634   26.2189 C   0  0  0  0  0  0  0  0  0  0  0  0
  -10.5758    2.5046   26.7628 C   0  0  0  0  0  0  0  0  0  0  0  0
  -10.4292    2.0903   27.9866 C   0  0  0  0  0  0  0  0  0  0  0  0
   -6.9060    4.6050   28.0306 C   0  0  0  0  0  0  0  0  0  0  0  0
  -11.7945    2.0304   26.1705 C   0  0  0  0  0  0  0  0  0  0  0  0
  -12.2478    1.0113   26.3428 C   0  0  0  0  0  0  0  0  0  0  0  0
  -10.9442    0.8494   28.5283 C   0  0  0  0  0  0  0  0  0  0  0  0
  -12.0092    0.3512   27.7611 C   0  0  0  0  0  0  0  0  0  0  0  0
   -7.2831    5.8065   28.6171 C   0  0  0  0  0  0  0  0  0  0  0  0
   -8.6131    6.2362   28.4478 C   0  0  0  0  0  0  0  0  0  0  0  0
  2  4  1  0
  4  5  1  0
  5  6  2  0
  6 10  1  0
 10 11  2  0
 11  9  1  0
  9  8  2  0
  8  5  1  0
  1  2  2  0
  2  3  1  0
  3 13  2  0
 13 12  1  0
 12  7  2  0
  7  1  1  0
M  END
$$$$
