No_7298-complexes_sdf/6BKW-FPZ/2024-09-17-14-21-01/
     RDKit          3D

 11 11  0  0  0  0  0  0  0  0999 V2000
   -7.9040    3.9820   27.1177 C   0  0  0  0  0  0  0  0  0  0  0  0
   -7.8663    4.8694   27.9238 C   0  0  0  0  0  0  0  0  0  0  0  0
   -9.0491    3.8523   26.2542 C   0  0  0  0  0  0  0  0  0  0  0  0
   -9.9827    3.2456   26.6451 C   0  0  0  0  0  0  0  0  0  0  0  0
   -9.1410    5.3568   28.4612 C   0  0  0  0  0  0  0  0  0  0  0  0
  -10.5003    4.9280   28.1786 C   0  0  0  0  0  0  0  0  0  0  0  0
  -10.8724    4.1156   27.2691 C   0  0  2  0  0  0  0  0  0  0  0  0
  -12.3338    3.6587   27.3970 C   0  0  0  0  0  0  0  0  0  0  0  0
  -13.2751    3.8253   27.9873 F   0  0  0  0  0  0  0  0  0  0  0  0
  -12.7160    2.7571   26.3729 F   0  0  0  0  0  0  0  0  0  0  0  0
   -6.8345    5.3828   28.5487 O   0  0  0  0  0  0  0  0  0  0  0  0
  1  2  1  0
  1  3  1  0
  3  4  2  0
  2  5  1  0
  5  6  1  0
  4  7  1  0
  6  7  1  0
  7  8  1  1
  8  9  1  0
  8 10  1  0
  2 11  2  0
M  END
$$$$
