No_7141-complexes_sdf/6BKW-FPZ/2024-09-17-14-21-01/
     RDKit          3D

 19 20  0  0  0  0  0  0  0  0999 V2000
   -7.2496    3.8871   27.4508 C   0  0  0  0  0  0  0  0  0  0  0  0
   -7.9379    4.9063   27.8518 C   0  0  0  0  0  0  0  0  0  0  0  0
   -7.5112    6.1898   27.6280 C   0  0  0  0  0  0  0  0  0  0  0  0
   -9.3085    4.6933   28.2930 C   0  0  0  0  0  0  0  0  0  0  0  0
   -7.5787    2.7932   27.1178 C   0  0  0  0  0  0  0  0  0  0  0  0
   -9.8184    3.3904   28.2375 C   0  0  0  0  0  0  0  0  0  0  0  0
   -9.0009    2.3921   27.6389 C   0  0  0  0  0  0  0  0  0  0  0  0
   -9.3058    0.9668   27.3925 C   0  0  0  0  0  0  0  0  0  0  0  0
   -9.5225    0.5665   26.1910 C   0  0  0  0  0  0  0  0  0  0  0  0
   -9.9897    1.3403   25.1596 C   0  0  0  0  0  0  0  0  0  0  0  0
   -9.7313    1.0710   23.8306 C   0  0  0  0  0  0  0  0  0  0  0  0
   -9.0566   -0.1455   23.4922 C   0  0  0  0  0  0  0  0  0  0  0  0
   -8.7934   -0.6756   25.7580 C   0  0  0  0  0  0  0  0  0  0  0  0
   -8.5831   -0.9602   24.4256 C   0  0  0  0  0  0  0  0  0  0  0  0
  -11.1587    3.0374   28.6073 C   0  0  0  0  0  0  0  0  0  0  0  0
  -12.2741    3.2855   27.7397 C   0  0  0  0  0  0  0  0  0  0  0  0
  -13.1981    3.6493   28.1794 C   0  0  0  0  0  0  0  0  0  0  0  0
  -13.6462    3.3755   29.6106 C   0  0  0  0  0  0  0  0  0  0  0  0
  -12.6368    2.8184   30.3882 C   0  0  0  0  0  0  0  0  0  0  0  0
  2  3  1  0
  7  8  1  0
  8  9  1  0
  6 15  1  0
 15 16  1  0
 16 17  2  3
 17 18  1  0
 18 19  2  0
  1  2  2  0
  2  4  1  0
  4  6  2  0
  6  7  1  0
  7  5  2  0
  5  1  1  0
  9 10  2  0
 10 11  1  0
 11 12  2  0
 12 14  1  0
 14 13  2  0
 13  9  1  0
M  END
$$$$
