No_7667-complexes_sdf/6BKW-FPZ/2024-09-17-14-21-01/
     RDKit          3D

 22 24  0  0  0  0  0  0  0  0999 V2000
   -7.7129    4.2099   27.0854 C   0  0  0  0  0  0  0  0  0  0  0  0
   -8.2112    3.0637   26.9225 C   0  0  0  0  0  0  0  0  0  0  0  0
   -8.5108    5.3904   26.9436 C   0  0  0  0  0  0  0  0  0  0  0  0
   -7.9752    6.6981   27.2112 C   0  0  0  0  0  0  0  0  0  0  0  0
   -9.5213    2.8208   26.4688 C   0  0  0  0  0  0  0  0  0  0  0  0
  -10.2979    3.9327   26.2378 C   0  0  0  0  0  0  0  0  0  0  0  0
   -9.7894    5.2123   26.4395 C   0  0  0  0  0  0  0  0  0  0  0  0
   -7.3451    1.8185   27.1796 C   0  0  0  0  0  0  0  0  0  0  0  0
   -6.0720    1.9951   27.7873 C   0  0  0  0  0  0  0  0  0  0  0  0
   -5.2849    0.8281   28.0481 C   0  0  0  0  0  0  0  0  0  0  0  0
   -5.8252   -0.4014   27.8067 C   0  0  0  0  0  0  0  0  0  0  0  0
   -7.5484    0.4210   27.1069 C   0  0  0  0  0  0  0  0  0  0  0  0
   -6.9940   -0.5655   27.3784 C   0  0  0  0  0  0  0  0  0  0  0  0
   -8.6330    7.8058   26.8249 N   0  0  0  0  0  0  0  0  0  0  0  0
   -6.8356    6.7882   27.7809 O   0  0  0  0  0  0  0  0  0  0  0  0
   -3.6796    1.1446   28.6963 Cl  0  0  0  0  0  0  0  0  0  0  0  0
  -11.6281    3.7700   25.6656 C   0  0  0  0  0  0  0  0  0  0  0  0
  -12.0739    4.2053   24.8579 C   0  0  0  0  0  0  0  0  0  0  0  0
  -13.4546    4.0655   24.2729 C   0  0  0  0  0  0  0  0  0  0  0  0
  -14.2429    3.2113   24.9659 C   0  0  0  0  0  0  0  0  0  0  0  0
  -12.5981    2.8837   26.4295 C   0  0  0  0  0  0  0  0  0  0  0  0
  -13.8117    2.6999   26.0857 C   0  0  0  0  0  0  0  0  0  0  0  0
  3  4  1  0
  2  8  1  0
  4 14  1  0
  4 15  2  0
 10 16  1  0
  6 17  1  0
 17 18  2  0
 18 19  1  0
 19 20  2  0
 20 22  1  0
 22 21  2  0
 21 17  1  0
  1  2  2  0
  2  5  1  0
  5  6  2  0
  6  7  1  0
  7  3  2  0
  3  1  1  0
  8  9  2  0
  9 10  1  0
 10 11  2  0
 11 13  1  0
 13 12  2  0
 12  8  1  0
M  END
$$$$
