No_706-complexes_sdf/6BKW-FPZ/2024-09-17-14-21-01/
     RDKit          3D

 24 28  0  0  0  0  0  0  0  0999 V2000
   -7.9040    3.9820   27.1177 C   0  0  0  0  0  0  0  0  0  0  0  0
   -7.8663    4.8694   27.9238 C   0  0  0  0  0  0  0  0  0  0  0  0
   -7.4698    2.6989   27.4277 C   0  0  0  0  0  0  0  0  0  0  0  0
   -7.9683    1.5964   26.8266 C   0  0  0  0  0  0  0  0  0  0  0  0
   -8.9850    1.7954   26.1965 C   0  0  0  0  0  0  0  0  0  0  0  0
   -9.5859    2.9401   25.8025 C   0  0  0  0  0  0  0  0  0  0  0  0
   -9.0374    4.0924   26.3812 C   0  0  0  0  0  0  0  0  0  0  0  0
   -8.3363    6.1918   27.6341 N   0  0  0  0  0  0  0  0  0  0  0  0
   -9.2506    6.5040   26.7261 C   0  0  0  0  0  0  0  0  0  0  0  0
   -9.6453    5.3590   26.0630 C   0  0  0  0  0  0  0  0  0  0  0  0
   -7.3169    0.2767   27.1848 C   0  0  0  0  0  0  0  0  0  0  0  0
   -5.9843    0.2198   27.6068 C   0  0  0  0  0  0  0  0  0  0  0  0
   -5.1421    1.3840   27.7972 C   0  0  0  0  0  0  0  0  0  0  0  0
   -5.9480    2.6741   27.7689 C   0  0  0  0  0  0  0  0  0  0  0  0
   -5.3215   -1.0165   27.8770 C   0  0  0  0  0  0  0  0  0  0  0  0
   -4.1414   -1.1686   27.9274 C   0  0  0  0  0  0  0  0  0  0  0  0
   -3.2485    0.0940   27.9626 C   0  0  0  0  0  0  0  0  0  0  0  0
   -3.8233    1.3265   27.8785 C   0  0  0  0  0  0  0  0  0  0  0  0
  -10.6921    3.0595   24.8567 C   0  0  0  0  0  0  0  0  0  0  0  0
  -10.5476    2.3058   23.7398 C   0  0  0  0  0  0  0  0  0  0  0  0
  -11.4726    2.4396   22.6706 C   0  0  0  0  0  0  0  0  0  0  0  0
  -12.4754    3.3755   22.8126 C   0  0  0  0  0  0  0  0  0  0  0  0
  -12.5825    4.1798   23.9282 C   0  0  0  0  0  0  0  0  0  0  0  0
  -11.6485    4.0942   24.9406 C   0  0  0  0  0  0  0  0  0  0  0  0
  6 19  1  0
  1  2  2  0
  2  8  1  0
  8  9  2  0
  9 10  1  0
 10  7  2  0
  1  3  1  0
  4  5  1  0
  5  6  2  0
  6  7  1  0
  7  1  1  0
 19 20  2  0
 20 21  1  0
 21 22  2  0
 22 23  1  0
 23 24  2  0
 24 19  1  0
 13 18  1  0
 18 17  2  0
 17 16  1  0
 16 15  2  0
 15 12  1  0
  3  4  2  0
  4 11  1  0
 11 12  2  0
 12 13  1  0
 13 14  2  0
 14  3  1  0
M  END
$$$$
