No_723-complexes_sdf/6BKW-FPZ/2024-09-17-14-21-01/
     RDKit          3D

 28 31  0  0  0  0  0  0  0  0999 V2000
   -7.9040    3.9820   27.1177 C   0  0  0  0  0  0  0  0  0  0  0  0
   -8.2057    2.8231   26.8733 C   0  0  0  0  0  0  0  0  0  0  0  0
   -7.4766    1.7477   27.4593 C   0  0  0  0  0  0  0  0  0  0  0  0
   -8.7468    5.1251   26.6967 C   0  0  0  0  0  0  0  0  0  0  0  0
   -9.7234    4.8589   25.8202 C   0  0  0  0  0  0  0  0  0  0  0  0
   -9.9711    3.5858   25.4266 C   0  0  0  0  0  0  0  0  0  0  0  0
   -9.2266    2.4957   25.9600 C   0  0  0  0  0  0  0  0  0  0  0  0
   -7.8394    0.3721   27.3404 C   0  0  0  0  0  0  0  0  0  0  0  0
   -8.9869    0.1878   26.4476 C   0  0  0  0  0  0  0  0  0  0  0  0
   -9.6379    1.1710   25.7653 C   0  0  0  0  0  0  0  0  0  0  0  0
   -8.6239    6.5457   27.0930 C   0  0  0  0  0  0  0  0  0  0  0  0
   -7.8926    7.5930   27.0242 N   0  0  0  0  0  0  0  0  0  0  0  0
   -7.1501   -0.6628   28.0013 C   0  0  0  0  0  0  0  0  0  0  0  0
   -5.8410   -0.4910   28.4145 C   0  0  0  0  0  0  0  0  0  0  0  0
   -5.0700    0.7101   28.0738 C   0  0  0  0  0  0  0  0  0  0  0  0
   -5.9767    1.8948   27.7700 C   0  0  0  0  0  0  0  0  0  0  0  0
   -3.8324    1.0193   28.5920 C   0  0  0  0  0  0  0  0  0  0  0  0
   -3.1035    1.5063   27.9500 O   0  0  0  0  0  0  0  0  0  0  0  0
   -3.3968    0.2591   29.7240 O   0  0  0  0  0  0  0  0  0  0  0  0
  -10.7175    0.8096   24.9116 C   0  0  0  0  0  0  0  0  0  0  0  0
  -11.8872    0.5174   25.4054 C   0  0  0  0  0  0  0  0  0  0  0  0
  -12.0473    0.4530   26.8368 C   0  0  0  0  0  0  0  0  0  0  0  0
  -12.7392    0.5516   27.6058 C   0  0  0  0  0  0  0  0  0  0  0  0
  -12.8900    0.7518   28.7519 C   0  0  0  0  0  0  0  0  0  0  0  0
  -14.0760    1.0003   29.5378 C   0  0  0  0  0  0  0  0  0  0  0  0
  -15.2482    0.9736   28.8681 C   0  0  0  0  0  0  0  0  0  0  0  0
  -15.2330    0.7111   27.5555 C   0  0  0  0  0  0  0  0  0  0  0  0
  -14.1903    0.6472   26.9493 C   0  0  0  0  0  0  0  0  0  0  0  0
  2  3  1  0
  8  9  1  0
  7 10  1  0
  9 10  1  0
  4 11  1  0
 11 12  3  0
 15 17  1  0
 17 18  2  0
 17 19  1  0
 10 20  1  0
 20 21  2  3
 21 22  1  0
 22 23  1  0
 23 24  2  0
 24 25  1  0
 25 26  2  0
 26 27  1  0
 27 28  2  0
 28 23  1  0
  3  8  2  0
  8 13  1  0
 13 14  2  0
 14 15  1  0
 15 16  2  0
 16  3  1  0
  1  2  2  0
  2  7  1  0
  7  6  2  0
  6  5  1  0
  5  4  2  0
  4  1  1  0
M  END
$$$$
