No_7447-complexes_sdf/6BKW-FPZ/2024-09-17-14-21-01/
     RDKit          3D

 13 13  0  0  0  0  0  0  0  0999 V2000
   -7.9040    3.9820   27.1177 C   0  0  0  0  0  0  0  0  0  0  0  0
   -8.2057    2.8231   26.8733 C   0  0  0  0  0  0  0  0  0  0  0  0
   -7.0130    4.3706   28.1140 C   0  0  0  0  0  0  0  0  0  0  0  0
   -7.3740    1.7588   27.2586 C   0  0  0  0  0  0  0  0  0  0  0  0
   -7.6741    0.4151   27.0228 C   0  0  0  0  0  0  0  0  0  0  0  0
   -5.9145    3.4662   28.2776 C   0  0  0  0  0  0  0  0  0  0  0  0
   -6.1777    2.1014   27.9931 C   0  0  0  0  0  0  0  0  0  0  0  0
   -8.7989    0.0108   26.7540 N   0  0  0  0  0  0  0  0  0  0  0  0
   -9.0324   -1.3256   26.5546 C   0  0  0  0  0  0  0  0  0  0  0  0
   -8.8385    5.2858   26.8606 C   0  0  0  0  0  0  0  0  0  0  0  0
   -9.6777    5.0158   26.0312 F   0  0  0  0  0  0  0  0  0  0  0  0
   -9.5625    5.7168   27.9883 F   0  0  0  0  0  0  0  0  0  0  0  0
   -8.1166    6.3590   26.4327 F   0  0  0  0  0  0  0  0  0  0  0  0
  4  5  1  0
  5  8  2  3
  8  9  1  0
  1 10  1  0
 10 11  1  0
 10 12  1  0
 10 13  1  0
  1  2  2  0
  2  4  1  0
  4  7  2  0
  7  6  1  0
  6  3  2  0
  3  1  1  0
M  END
$$$$
