No_7007-complexes_sdf/6BKW-FPZ/2024-09-17-14-21-01/
     RDKit          3D

 14 15  0  0  0  0  0  0  0  0999 V2000
   -7.7129    4.2099   27.0854 C   0  0  0  0  0  0  0  0  0  0  0  0
   -7.7814    5.1722   27.8972 C   0  0  0  0  0  0  0  0  0  0  0  0
   -8.8776    3.8408   26.3416 C   0  0  0  0  0  0  0  0  0  0  0  0
   -9.9844    4.6492   26.4743 C   0  0  0  0  0  0  0  0  0  0  0  0
   -8.7830    6.1594   27.8870 C   0  0  0  0  0  0  0  0  0  0  0  0
   -9.9269    5.8191   27.1183 C   0  0  0  0  0  0  0  0  0  0  0  0
   -8.8706    2.7368   25.6198 F   0  0  0  0  0  0  0  0  0  0  0  0
  -11.1296    4.3196   25.6278 C   0  0  0  0  0  0  0  0  0  0  0  0
  -10.9130    4.1273   24.2041 C   0  0  0  0  0  0  0  0  0  0  0  0
  -11.9589    3.8959   23.3737 C   0  0  0  0  0  0  0  0  0  0  0  0
  -13.2478    3.8956   23.8618 C   0  0  0  0  0  0  0  0  0  0  0  0
  -12.4670    4.2750   25.9190 C   0  0  0  0  0  0  0  0  0  0  0  0
  -13.4915    4.1148   25.2073 C   0  0  0  0  0  0  0  0  0  0  0  0
  -15.0892    4.1349   25.7735 Cl  0  0  0  0  0  0  0  0  0  0  0  0
  3  7  1  0
  4  8  1  0
 13 14  1  0
  1  2  2  0
  2  5  1  0
  5  6  2  0
  6  4  1  0
  4  3  2  0
  3  1  1  0
  8  9  2  0
  9 10  1  0
 10 11  2  0
 11 13  1  0
 13 12  2  0
 12  8  1  0
M  END
$$$$
