No_7587-complexes_sdf/6BKW-FPZ/2024-09-17-14-21-01/
     RDKit          3D

 23 24  0  0  0  0  0  0  0  0999 V2000
   -7.7129    4.2099   27.0854 C   0  0  0  0  0  0  0  0  0  0  0  0
   -7.7814    5.1722   27.8972 C   0  0  0  0  0  0  0  0  0  0  0  0
   -8.8998    3.8713   26.3707 C   0  0  0  0  0  0  0  0  0  0  0  0
   -8.9563    2.6796   25.5490 C   0  0  0  0  0  0  0  0  0  0  0  0
   -8.8501    6.0071   27.8467 N   0  0  0  0  0  0  0  0  0  0  0  0
   -9.9490    5.7837   27.2002 C   0  0  0  0  0  0  0  0  0  0  0  0
   -9.9821    4.6597   26.4501 C   0  0  0  0  0  0  0  0  0  0  0  0
   -8.2925    1.5200   26.0662 C   0  0  0  0  0  0  0  0  0  0  0  0
   -7.6681    1.6576   27.3388 C   0  0  0  0  0  0  0  0  0  0  0  0
   -7.1462    2.9753   27.7073 C   0  0  0  0  0  0  0  0  0  0  0  0
   -6.7137    5.6101   28.6469 N   0  0  0  0  0  0  0  0  0  0  0  0
   -8.3640    0.2709   25.4239 C   0  0  0  0  0  0  0  0  0  0  0  0
   -7.7889   -0.6666   25.6825 O   0  0  0  0  0  0  0  0  0  0  0  0
   -9.0456    0.3138   24.1925 O   0  0  0  0  0  0  0  0  0  0  0  0
  -11.1139    4.4123   25.5483 C   0  0  0  0  0  0  0  0  0  0  0  0
  -11.3943    3.4563   25.3573 N   0  0  0  0  0  0  0  0  0  0  0  0
  -11.8900    2.6070   26.1065 C   0  0  0  0  0  0  0  0  0  0  0  0
  -12.3339    1.3019   25.6674 C   0  0  0  0  0  0  0  0  0  0  0  0
  -12.6003    1.1552   24.4520 C   0  0  0  0  0  0  0  0  0  0  0  0
  -13.0003   -0.1429   23.9609 C   0  0  0  0  0  0  0  0  0  0  0  0
  -13.0991   -1.1788   24.8849 C   0  0  0  0  0  0  0  0  0  0  0  0
  -12.8315   -1.0047   26.2137 C   0  0  0  0  0  0  0  0  0  0  0  0
  -12.4044    0.2489   26.6957 C   0  0  0  0  0  0  0  0  0  0  0  0
  2 11  1  0
  8 12  1  0
 12 13  2  0
 12 14  1  0
  7 15  1  0
 15 16  2  3
 16 17  1  0
 17 18  2  3
 18 19  1  0
 19 20  2  3
 20 21  1  0
 21 22  2  3
 22 23  1  0
  3  4  1  0
  4  8  2  0
  8  9  1  0
  9 10  2  0
 10  1  1  0
  1  2  2  0
  2  5  1  0
  5  6  2  0
  6  7  1  0
  7  3  2  0
  3  1  1  0
M  END
$$$$
