No_7424-complexes_sdf/6BKW-FPZ/2024-09-17-14-21-01/
     RDKit          3D

 26 29  0  0  0  0  0  0  0  0999 V2000
   -7.2496    3.8871   27.4508 C   0  0  0  0  0  0  0  0  0  0  0  0
   -8.5096    4.0291   27.2770 C   0  0  0  0  0  0  0  0  0  0  0  0
   -9.3451    2.8786   26.9046 C   0  0  0  0  0  0  0  0  0  0  0  0
   -6.6065    2.5680   27.5073 C   0  0  0  0  0  0  0  0  0  0  0  0
   -7.3970    1.4834   27.2271 C   0  0  0  0  0  0  0  0  0  0  0  0
   -8.7029    1.6398   26.9934 C   0  0  0  0  0  0  0  0  0  0  0  0
   -9.2878    5.2595   27.2401 C   0  0  0  0  0  0  0  0  0  0  0  0
   -8.5055    6.4402   27.0551 C   0  0  0  0  0  0  0  0  0  0  0  0
   -8.8938    7.6581   26.5759 C   0  0  0  0  0  0  0  0  0  0  0  0
   -6.7357    0.1950   27.2767 C   0  0  0  0  0  0  0  0  0  0  0  0
   -5.5007    0.0777   27.8700 C   0  0  0  0  0  0  0  0  0  0  0  0
   -4.7684    1.3142   28.2001 C   0  0  0  0  0  0  0  0  0  0  0  0
   -5.2806    2.4649   28.0609 C   0  0  0  0  0  0  0  0  0  0  0  0
   -7.1609    6.4919   27.6827 C   0  0  0  0  0  0  0  0  0  0  0  0
   -4.8628   -1.2214   27.9969 C   0  0  0  0  0  0  0  0  0  0  0  0
   -5.5871   -2.1117   28.3383 C   0  0  0  0  0  0  0  0  0  0  0  0
   -5.3944   -3.1298   28.9964 C   0  0  0  0  0  0  0  0  0  0  0  0
   -6.3211   -4.2679   29.3069 C   0  0  0  0  0  0  0  0  0  0  0  0
   -7.5959   -4.0909   28.7936 C   0  0  0  0  0  0  0  0  0  0  0  0
   -7.9537   -2.9813   28.0748 C   0  0  0  0  0  0  0  0  0  0  0  0
   -7.0896   -2.0311   27.8641 C   0  0  0  0  0  0  0  0  0  0  0  0
   -7.4723   -0.7548   27.3532 C   0  0  0  0  0  0  0  0  0  0  0  0
   -9.3664   -2.8595   27.6856 C   0  0  0  0  0  0  0  0  0  0  0  0
  -10.1902   -2.3333   28.6343 C   0  0  0  0  0  0  0  0  0  0  0  0
  -11.4658   -1.7839   28.3506 C   0  0  0  0  0  0  0  0  0  0  0  0
  -12.1905   -1.1458   29.3541 C   0  0  0  0  0  0  0  0  0  0  0  0
  2  7  1  0
  7  8  1  0
  8  9  2  0
  8 14  1  0
 11 15  1  0
 15 16  1  0
 10 22  1  0
 21 22  1  0
 20 23  1  0
 23 24  1  0
 24 25  2  3
 25 26  1  0
  5 10  2  0
 10 11  1  0
 11 12  2  0
 12 13  1  0
 13  4  2  0
  1  2  2  0
  2  3  1  0
  3  6  2  0
  6  5  1  0
  5  4  1  0
  4  1  1  0
 16 17  2  0
 17 18  1  0
 18 19  2  0
 19 20  1  0
 20 21  2  0
 21 16  1  0
M  END
$$$$
