No_7472-complexes_sdf/6BKW-FPZ/2024-09-17-14-21-01/
     RDKit          3D

 17 18  0  0  0  0  0  0  0  0999 V2000
   -7.9040    3.9820   27.1177 C   0  0  0  0  0  0  0  0  0  0  0  0
   -9.0711    4.3164   27.0630 C   0  0  0  0  0  0  0  0  0  0  0  0
   -9.8698    3.9665   25.9494 C   0  0  0  0  0  0  0  0  0  0  0  0
   -7.4046    2.7946   26.4568 C   0  0  0  0  0  0  0  0  0  0  0  0
   -8.3645    2.1023   25.7152 C   0  0  0  0  0  0  0  0  0  0  0  0
   -9.5483    2.7427   25.4386 C   0  0  0  0  0  0  0  0  0  0  0  0
   -7.0080    4.5094   28.0245 F   0  0  0  0  0  0  0  0  0  0  0  0
  -10.5777    2.3278   24.3996 C   0  0  1  0  0  0  0  0  0  0  0  0
  -11.0643    2.9723   23.5520 N   0  0  0  0  0  0  0  0  0  0  0  0
  -10.6411    3.3831   22.5999 C   0  0  0  0  0  0  0  0  0  0  0  0
  -11.0370    4.6421   21.9451 C   0  0  0  0  0  0  0  0  0  0  0  0
  -12.4230    3.5152   23.8776 C   0  0  0  0  0  0  0  0  0  0  0  0
  -12.9887    4.5820   23.2319 C   0  0  0  0  0  0  0  0  0  0  0  0
  -12.2996    5.1333   22.2127 C   0  0  0  0  0  0  0  0  0  0  0  0
  -10.7044    0.8538   24.2593 C   0  0  0  0  0  0  0  0  0  0  0  0
   -9.7968    0.2121   23.5436 C   0  0  0  0  0  0  0  0  0  0  0  0
   -9.9307   -1.1807   23.3155 C   0  0  0  0  0  0  0  0  0  0  0  0
  1  7  1  0
  6  8  1  0
  8  9  1  6
  9 10  1  0
  9 12  1  0
 11 14  1  0
 13 14  1  0
  8 15  1  0
 15 16  2  3
 16 17  1  0
 10 11  1  0
 13 12  1  0
  1  2  2  0
  2  3  1  0
  3  6  2  0
  6  5  1  0
  5  4  2  0
  4  1  1  0
M  END
$$$$
