No_7542-complexes_sdf/6BKW-FPZ/2024-09-17-14-21-01/
     RDKit          3D

 13 14  0  0  0  0  0  0  0  0999 V2000
   -7.7129    4.2099   27.0854 C   0  0  0  0  0  0  0  0  0  0  0  0
   -7.7814    5.1722   27.8972 C   0  0  0  0  0  0  0  0  0  0  0  0
   -8.8776    3.8408   26.3416 C   0  0  0  0  0  0  0  0  0  0  0  0
   -9.9844    4.6492   26.4743 C   0  0  0  0  0  0  0  0  0  0  0  0
   -8.8033    6.1375   27.8728 C   0  0  0  0  0  0  0  0  0  0  0  0
   -9.9554    5.8280   27.1737 C   0  0  0  0  0  0  0  0  0  0  0  0
   -9.0925    2.6383   25.5997 C   0  0  0  0  0  0  0  0  0  0  0  0
   -9.8581    2.5176   24.5007 C   0  0  0  0  0  0  0  0  0  0  0  0
   -9.8986    1.3823   23.7620 C   0  0  0  0  0  0  0  0  0  0  0  0
   -9.0046    0.3005   24.0719 C   0  0  0  0  0  0  0  0  0  0  0  0
   -8.2783    1.4220   25.9311 C   0  0  0  0  0  0  0  0  0  0  0  0
   -8.2519    0.3533   25.1918 C   0  0  0  0  0  0  0  0  0  0  0  0
   -6.6546    5.5890   28.6082 O   0  0  0  0  0  0  0  0  0  0  0  0
  3  7  1  0
  2 13  1  0
  7  8  2  0
  8  9  1  0
  9 10  2  0
 10 12  1  0
 12 11  2  0
 11  7  1  0
  1  2  2  0
  2  5  1  0
  5  6  2  0
  6  4  1  0
  4  3  2  0
  3  1  1  0
M  END
$$$$
