No_7390-complexes_sdf/6BKW-FPZ/2024-09-17-14-21-01/
     RDKit          3D

 17 18  0  0  0  0  0  0  0  0999 V2000
   -7.9040    3.9820   27.1177 C   0  0  0  0  0  0  0  0  0  0  0  0
   -8.2057    2.8231   26.8733 C   0  0  0  0  0  0  0  0  0  0  0  0
   -8.7695    5.0740   26.7916 C   0  0  0  0  0  0  0  0  0  0  0  0
   -9.9618    4.7598   26.1630 C   0  0  0  0  0  0  0  0  0  0  0  0
   -9.4200    2.4524   26.2849 C   0  0  0  0  0  0  0  0  0  0  0  0
  -10.2590    3.4815   25.9250 C   0  0  0  0  0  0  0  0  0  0  0  0
   -8.1804    6.4174   27.1235 C   0  0  0  0  0  0  0  0  0  0  0  0
   -8.9656    7.5322   26.8904 N   0  0  0  0  0  0  0  0  0  0  0  0
   -7.2644    6.5014   28.0337 O   0  0  0  0  0  0  0  0  0  0  0  0
   -7.5056    1.5086   27.1975 C   0  0  0  0  0  0  0  0  0  0  0  0
   -6.1458    1.6959   27.7100 C   0  0  0  0  0  0  0  0  0  0  0  0
   -5.3835    0.5629   28.0710 C   0  0  0  0  0  0  0  0  0  0  0  0
   -5.9110   -0.6862   27.9453 C   0  0  0  0  0  0  0  0  0  0  0  0
   -7.7959    0.2081   27.1793 C   0  0  0  0  0  0  0  0  0  0  0  0
   -9.2462    0.0517   26.7471 C   0  0  0  0  0  0  0  0  0  0  0  0
   -7.1548   -0.8320   27.5776 C   0  0  0  0  0  0  0  0  0  0  0  0
   -9.9177   -1.1493   26.6736 C   0  0  0  0  0  0  0  0  0  0  0  0
  3  7  1  0
  7  8  1  0
  7  9  2  0
  2 10  1  0
 14 15  1  0
 15 17  2  0
 10 11  2  0
 11 12  1  0
 12 13  2  0
 13 16  1  0
 16 14  2  0
 14 10  1  0
  1  2  2  0
  2  5  1  0
  5  6  2  0
  6  4  1  0
  4  3  2  0
  3  1  1  0
M  END
$$$$
