No_7248-complexes_sdf/6BKW-FPZ/2024-09-17-14-21-01/
     RDKit          3D

 17 19  0  0  0  0  0  0  0  0999 V2000
   -7.9040    3.9820   27.1177 C   0  0  0  0  0  0  0  0  0  0  0  0
   -7.8663    4.8694   27.9238 C   0  0  0  0  0  0  0  0  0  0  0  0
   -9.0491    3.8523   26.2542 C   0  0  0  0  0  0  0  0  0  0  0  0
   -9.7161    4.8785   25.9890 C   0  0  0  0  0  0  0  0  0  0  0  0
   -8.5086    6.0982   27.7096 C   0  0  0  0  0  0  0  0  0  0  0  0
   -9.5239    6.1123   26.7949 C   0  0  0  0  0  0  0  0  0  0  0  0
   -7.0365    2.7394   27.5895 C   0  0  0  0  0  0  0  0  0  0  0  0
   -7.5773    1.4611   27.4903 C   0  0  0  0  0  0  0  0  0  0  0  0
   -6.7562    0.3729   27.7189 C   0  0  0  0  0  0  0  0  0  0  0  0
   -5.3673    0.6174   28.0354 C   0  0  0  0  0  0  0  0  0  0  0  0
   -4.8982    1.9518   28.0235 C   0  0  0  0  0  0  0  0  0  0  0  0
   -5.6595    2.9615   27.7639 C   0  0  0  0  0  0  0  0  0  0  0  0
   -4.5088   -0.5354   28.3318 C   0  0  0  0  0  0  0  0  0  0  0  0
   -3.6978   -0.6469   29.0205 C   0  0  0  0  0  0  0  0  0  0  0  0
   -2.8086   -1.8025   29.3149 C   0  0  0  0  0  0  0  0  0  0  0  0
   -3.1452   -2.9146   28.5948 C   0  0  0  0  0  0  0  0  0  0  0  0
   -4.5512   -1.9355   27.7743 C   0  0  0  0  0  0  0  0  0  0  0  0
  1  7  1  0
 10 13  1  0
 13 14  2  0
 14 15  1  0
 15 16  2  0
 13 17  1  0
 16 17  1  0
  1  2  2  0
  2  5  1  0
  5  6  2  0
  6  4  1  0
  4  3  2  0
  3  1  1  0
  7  8  2  0
  8  9  1  0
  9 10  2  0
 10 11  1  0
 11 12  2  0
 12  7  1  0
M  END
$$$$
