No_705-complexes_sdf/6BKW-FPZ/2024-09-17-14-21-01/
     RDKit          3D

 39 41  0  0  0  0  0  0  0  0999 V2000
   -7.9040    3.9820   27.1177 C   0  0  0  0  0  0  0  0  0  0  0  0
   -7.8663    4.8694   27.9238 C   0  0  0  0  0  0  0  0  0  0  0  0
   -9.0501    3.8017   26.2617 C   0  0  0  0  0  0  0  0  0  0  0  0
  -10.0189    4.7608   26.3707 C   0  0  0  0  0  0  0  0  0  0  0  0
   -8.6770    5.9780   27.9222 C   0  0  0  0  0  0  0  0  0  0  0  0
   -9.8040    5.8752   27.0958 C   0  0  0  0  0  0  0  0  0  0  0  0
   -9.1518    2.6191   25.4170 C   0  0  0  0  0  0  0  0  0  0  0  0
   -8.6413    1.4242   25.8318 C   0  0  0  0  0  0  0  0  0  0  0  0
   -8.7321    0.3067   25.0180 C   0  0  0  0  0  0  0  0  0  0  0  0
   -9.3519    0.4515   23.7775 C   0  0  0  0  0  0  0  0  0  0  0  0
   -9.7556    2.6898   24.1776 C   0  0  0  0  0  0  0  0  0  0  0  0
   -9.8156    1.6480   23.3533 C   0  0  0  0  0  0  0  0  0  0  0  0
  -10.4469    1.7513   22.0092 C   0  0  0  0  0  0  0  0  0  0  0  0
  -11.6951    1.8102   21.9814 O   0  0  0  0  0  0  0  0  0  0  0  0
   -9.7086    2.2364   21.0580 O   0  0  0  0  0  0  0  0  0  0  0  0
   -8.1350   -0.9508   25.4547 C   0  0  0  0  0  0  0  0  0  0  0  0
   -7.3624   -1.0307   26.2106 N   0  0  0  0  0  0  0  0  0  0  0  0
   -6.3461   -1.3090   26.6008 C   0  0  0  0  0  0  0  0  0  0  0  0
   -5.5950   -1.1706   27.8794 C   0  0  0  0  0  0  0  0  0  0  0  0
   -4.5152   -0.5368   28.1203 C   0  0  0  0  0  0  0  0  0  0  0  0
   -3.6098   -0.3212   27.0358 C   0  0  0  0  0  0  0  0  0  0  0  0
   -4.1102   -0.5531   25.7801 C   0  0  0  0  0  0  0  0  0  0  0  0
   -5.3939   -0.9277   25.5736 C   0  0  0  0  0  0  0  0  0  0  0  0
   -8.3461   -1.9925   24.7639 O   0  0  0  0  0  0  0  0  0  0  0  0
   -3.9107   -0.3159   29.5092 C   0  0  0  0  0  0  0  0  0  0  0  0
   -3.8447    0.8772   29.6436 F   0  0  0  0  0  0  0  0  0  0  0  0
   -2.6878   -0.8594   29.5526 F   0  0  0  0  0  0  0  0  0  0  0  0
   -4.7286   -0.7765   30.4414 F   0  0  0  0  0  0  0  0  0  0  0  0
  -12.3579    1.6577   20.9160 C   0  0  0  0  0  0  0  0  0  0  0  0
  -13.6714    1.6417   20.9570 C   0  0  0  0  0  0  0  0  0  0  0  0
  -14.3147    1.6065   21.9201 F   0  0  0  0  0  0  0  0  0  0  0  0
  -14.2078    2.7942   20.2933 F   0  0  0  0  0  0  0  0  0  0  0  0
  -14.1811    0.6281   20.0357 F   0  0  0  0  0  0  0  0  0  0  0  0
  -11.8749    0.4378   20.3754 F   0  0  0  0  0  0  0  0  0  0  0  0
  -11.8272    2.5562   19.9122 F   0  0  0  0  0  0  0  0  0  0  0  0
   -6.9604    2.9566   27.1588 O   0  0  0  0  0  0  0  0  0  0  0  0
   -5.7452    3.3230   27.6045 C   0  0  0  0  0  0  0  0  0  0  0  0
   -4.9801    1.9812   27.8739 C   0  0  0  0  0  0  0  0  0  0  0  0
   -3.7450    2.1199   27.8602 O   0  0  0  0  0  0  0  0  0  0  0  0
  3  7  1  0
 12 13  1  0
 13 14  1  0
 13 15  2  0
  9 16  1  0
 16 17  1  0
 16 24  2  0
 20 25  1  0
 25 26  1  0
 25 27  1  0
 25 28  1  0
 14 29  1  0
 29 30  1  0
 30 31  1  0
 30 32  1  0
 30 33  1  0
 29 34  1  0
 29 35  1  0
  1 36  1  0
 36 37  1  0
 37 38  2  0
 38 39  2  0
 17 18  1  0
  7  8  2  0
  8  9  1  0
  9 10  2  0
 10 12  1  0
 12 11  2  0
 11  7  1  0
 18 19  2  0
 19 20  1  0
 20 21  2  0
 21 22  1  0
 22 23  2  0
 23 18  1  0
  1  2  2  0
  2  5  1  0
  5  6  2  0
  6  4  1  0
  4  3  2  0
  3  1  1  0
M  END
$$$$
