No_7714-complexes_sdf/6BKW-FPZ/2024-09-17-14-21-01/
     RDKit          3D

 11 11  0  0  0  0  0  0  0  0999 V2000
   -7.7129    4.2099   27.0854 C   0  0  0  0  0  0  0  0  0  0  0  0
   -8.9133    4.4736   27.0998 C   0  0  0  0  0  0  0  0  0  0  0  0
   -9.7135    3.9633   26.0300 C   0  0  0  0  0  0  0  0  0  0  0  0
   -6.8420    4.9760   28.0851 C   0  0  0  0  0  0  0  0  0  0  0  0
   -9.9322    2.5915   25.9958 C   0  0  0  0  0  0  0  0  0  0  0  0
   -8.6663    1.8686   26.4047 C   0  0  0  0  0  0  0  0  0  0  0  0
   -7.6806    2.6432   27.1773 C   0  0  0  0  0  0  0  0  0  0  0  0
   -8.4560    0.4672   26.3081 C   0  0  0  0  0  0  0  0  0  0  0  0
   -8.3964   -0.2269   27.0784 N   0  0  0  0  0  0  0  0  0  0  0  0
   -8.0969   -0.9421   27.7225 C   0  0  0  0  0  0  0  0  0  0  0  0
   -8.5839   -2.2727   27.6431 C   0  0  0  0  0  0  0  0  0  0  0  0
  1  4  1  0
  6  8  1  0
  8  9  1  0
  9 10  2  3
 10 11  1  0
  1  2  2  0
  2  3  1  0
  3  5  2  0
  5  6  1  0
  6  7  2  0
  7  1  1  0
M  END
$$$$
