No_794-complexes_sdf/6BKW-FPZ/2024-09-17-14-21-01/
     RDKit          3D

 19 21  0  0  0  0  0  0  0  0999 V2000
   -7.7129    4.2099   27.0854 C   0  0  0  0  0  0  0  0  0  0  0  0
   -7.7814    5.1722   27.8972 C   0  0  0  0  0  0  0  0  0  0  0  0
   -8.8776    3.8408   26.3416 C   0  0  0  0  0  0  0  0  0  0  0  0
   -9.9844    4.6492   26.4743 C   0  0  0  0  0  0  0  0  0  0  0  0
   -8.8033    6.1375   27.8728 C   0  0  0  0  0  0  0  0  0  0  0  0
   -9.9554    5.8280   27.1737 C   0  0  0  0  0  0  0  0  0  0  0  0
   -8.8740    2.6184   25.5584 C   0  0  0  0  0  0  0  0  0  0  0  0
   -8.2606    1.4639   26.1340 C   0  0  0  0  0  0  0  0  0  0  0  0
   -8.0974    0.3133   25.4314 C   0  0  0  0  0  0  0  0  0  0  0  0
   -8.6927    0.2987   24.1504 C   0  0  0  0  0  0  0  0  0  0  0  0
   -9.3500    1.3892   23.5796 C   0  0  0  0  0  0  0  0  0  0  0  0
   -9.3799    2.5644   24.2974 C   0  0  0  0  0  0  0  0  0  0  0  0
   -9.9470    1.5311   22.2530 C   0  0  0  0  0  0  0  0  0  0  0  0
  -10.3656    2.6335   21.7275 C   0  0  0  0  0  0  0  0  0  0  0  0
  -10.9472    2.7373   20.4706 C   0  0  0  0  0  0  0  0  0  0  0  0
  -11.1776    1.5703   19.7489 C   0  0  0  0  0  0  0  0  0  0  0  0
   -9.9003    0.3692   21.3376 C   0  0  0  0  0  0  0  0  0  0  0  0
  -10.6207    0.4196   20.2122 C   0  0  0  0  0  0  0  0  0  0  0  0
   -6.6644    5.6140   28.6143 O   0  0  0  0  0  0  0  0  0  0  0  0
  3  7  1  0
 11 13  1  0
  2 19  1  0
 13 14  2  0
 14 15  1  0
 15 16  2  0
 16 18  1  0
 18 17  2  0
 17 13  1  0
  1  2  2  0
  2  5  1  0
  5  6  2  0
  6  4  1  0
  4  3  2  0
  3  1  1  0
  7  8  2  0
  8  9  1  0
  9 10  2  0
 10 11  1  0
 11 12  2  0
 12  7  1  0
M  END
$$$$
