No_7693-complexes_sdf/6BKW-FPZ/2024-09-17-14-21-01/
     RDKit          3D

 10 10  0  0  0  0  0  0  0  0999 V2000
   -7.2496    3.8871   27.4508 C   0  0  0  0  0  0  0  0  0  0  0  0
   -7.9379    4.9063   27.8518 C   0  0  1  0  0  0  0  0  0  0  0  0
   -7.5112    6.1898   27.6280 C   0  0  0  0  0  0  0  0  0  0  0  0
   -9.4044    4.7330   27.8015 C   0  0  0  0  0  0  0  0  0  0  0  0
   -7.6918    2.5968   27.9026 C   0  0  0  0  0  0  0  0  0  0  0  0
   -8.4005    2.0278   26.8247 C   0  0  0  0  0  0  0  0  0  0  0  0
   -9.8645    2.4365   26.7843 C   0  0  0  0  0  0  0  0  0  0  0  0
  -10.2285    3.6850   27.4130 C   0  0  1  0  0  0  0  0  0  0  0  0
  -11.6187    3.5932   28.0300 C   0  0  0  0  0  0  0  0  0  0  0  0
  -12.4894    4.5401   27.4820 C   0  0  0  0  0  0  0  0  0  0  0  0
  1  2  1  0
  2  3  1  6
  2  4  1  0
  1  5  1  0
  5  6  1  0
  6  7  1  0
  4  8  1  0
  7  8  1  0
  8  9  1  1
  9 10  2  0
M  END
$$$$
