No_7948-complexes_sdf/6BKW-FPZ/2024-09-17-14-21-01/
     RDKit          3D

 21 22  0  0  0  0  0  0  0  0999 V2000
   -7.2496    3.8871   27.4508 C   0  0  0  0  0  0  0  0  0  0  0  0
   -7.9379    4.9063   27.8518 C   0  0  0  0  0  0  0  0  0  0  0  0
   -9.3460    4.8223   27.8695 C   0  0  0  0  0  0  0  0  0  0  0  0
   -7.8628    2.6163   27.1065 C   0  0  0  0  0  0  0  0  0  0  0  0
   -9.2787    2.5744   27.1970 C   0  0  0  0  0  0  0  0  0  0  0  0
  -10.0108    3.6770   27.6340 C   0  0  0  0  0  0  0  0  0  0  0  0
  -11.4834    3.5674   27.7432 C   0  0  0  0  0  0  0  0  0  0  0  0
  -11.9395    2.6434   28.4995 C   0  0  0  0  0  0  0  0  0  0  0  0
  -13.3550    2.4593   28.7913 C   0  0  2  0  0  0  0  0  0  0  0  0
  -13.8026    1.4019   29.5768 C   0  0  0  0  0  0  0  0  0  0  0  0
  -14.0232    0.4347   29.2146 C   0  0  0  0  0  0  0  0  0  0  0  0
  -13.8661    0.1049   27.8240 C   0  0  0  0  0  0  0  0  0  0  0  0
  -13.5539   -1.1704   27.5202 C   0  0  0  0  0  0  0  0  0  0  0  0
  -13.2247   -1.5206   26.1501 C   0  0  0  0  0  0  0  0  0  0  0  0
  -13.3073   -0.4981   25.2147 C   0  0  0  0  0  0  0  0  0  0  0  0
  -13.6419    0.7612   25.5600 C   0  0  0  0  0  0  0  0  0  0  0  0
  -13.8339    1.0810   26.8637 C   0  0  0  0  0  0  0  0  0  0  0  0
  -14.1996    2.7264   27.8577 C   0  0  0  0  0  0  0  0  0  0  0  0
  -13.6159    2.1280   26.8199 F   0  0  0  0  0  0  0  0  0  0  0  0
  -15.6040    2.3983   27.8712 C   0  0  0  0  0  0  0  0  0  0  0  0
  -14.0928    4.2596   27.4016 C   0  0  0  0  0  0  0  0  0  0  0  0
  6  7  1  0
  7  8  2  3
  8  9  1  0
  9 10  1  0
 10 11  2  3
 11 12  1  0
  9 18  1  6
 17 19  1  0
 18 20  1  0
 18 21  1  0
 12 13  2  0
 13 14  1  0
 14 15  2  0
 15 16  1  0
 16 17  2  0
 17 12  1  0
  1  2  2  0
  2  3  1  0
  3  6  2  0
  6  5  1  0
  5  4  2  0
  4  1  1  0
M  END
$$$$
