No_7003-complexes_sdf/6BKW-FPZ/2024-09-17-14-21-01/
     RDKit          3D

 12 13  0  0  0  0  0  0  0  0999 V2000
   -7.9040    3.9820   27.1177 C   0  0  0  0  0  0  0  0  0  0  0  0
   -7.8663    4.8694   27.9238 C   0  0  0  0  0  0  0  0  0  0  0  0
   -9.0806    3.1428   27.1220 C   0  0  0  0  0  0  0  0  0  0  0  0
  -10.0970    3.3939   27.9555 C   0  0  0  0  0  0  0  0  0  0  0  0
   -8.9263    5.4490   28.6197 C   0  0  0  0  0  0  0  0  0  0  0  0
  -10.0741    4.6151   28.7290 C   0  0  0  0  0  0  0  0  0  0  0  0
   -9.0498    1.8603   26.3527 C   0  0  0  0  0  0  0  0  0  0  0  0
   -8.5926    1.7795   25.3922 C   0  0  0  0  0  0  0  0  0  0  0  0
   -8.5812    0.5344   24.5182 C   0  0  0  0  0  0  0  0  0  0  0  0
   -9.1437   -0.5415   25.0240 C   0  0  0  0  0  0  0  0  0  0  0  0
   -9.6144    0.6399   26.8819 C   0  0  0  0  0  0  0  0  0  0  0  0
   -9.6473   -0.3141   26.4538 C   0  0  0  0  0  0  0  0  0  0  0  0
  3  7  1  0
  7  8  2  0
  8  9  1  0
  9 10  2  0
 10 12  1  0
 12 11  2  0
 11  7  1  0
  1  2  2  0
  2  5  1  0
  5  6  2  0
  6  4  1  0
  4  3  2  0
  3  1  1  0
M  END
$$$$
