No_7179-complexes_sdf/6BKW-FPZ/2024-09-17-14-21-01/
     RDKit          3D

 15 15  0  0  0  0  0  0  0  0999 V2000
   -7.2496    3.8871   27.4508 C   0  0  0  0  0  0  0  0  0  0  0  0
   -7.6161    2.7143   27.1523 C   0  0  0  0  0  0  0  0  0  0  0  0
   -8.6212    2.2239   26.4074 C   0  0  0  0  0  0  0  0  0  0  0  0
   -8.1953    4.9310   27.1292 C   0  0  0  0  0  0  0  0  0  0  0  0
   -9.3000    4.6721   26.3461 C   0  0  0  0  0  0  0  0  0  0  0  0
   -9.5304    3.3137   26.0344 C   0  0  0  0  0  0  0  0  0  0  0  0
   -7.8887    6.2546   27.4610 N   0  0  0  0  0  0  0  0  0  0  0  0
   -8.8802    0.9114   26.0712 C   0  0  0  0  0  0  0  0  0  0  0  0
   -8.2387    0.4675   25.1416 O   0  0  0  0  0  0  0  0  0  0  0  0
   -9.7606    0.1895   26.7666 N   0  0  0  0  0  0  0  0  0  0  0  0
  -10.5159    0.6360   27.9864 C   0  0  0  0  0  0  0  0  0  0  0  0
  -11.5568   -0.2391   28.4251 C   0  0  0  0  0  0  0  0  0  0  0  0
  -12.7332    0.3794   28.6999 C   0  0  0  0  0  0  0  0  0  0  0  0
  -13.8441   -0.4272   29.0487 C   0  0  0  0  0  0  0  0  0  0  0  0
  -13.6613   -1.7681   29.2108 C   0  0  0  0  0  0  0  0  0  0  0  0
  4  7  1  0
  3  8  1  0
  8  9  2  0
  8 10  1  0
 10 11  1  0
 11 12  2  3
 12 13  1  0
 13 14  1  0
 14 15  2  0
  1  2  2  0
  2  3  1  0
  3  6  2  0
  6  5  1  0
  5  4  2  0
  4  1  1  0
M  END
$$$$
