No_7064-complexes_sdf/6BKW-FPZ/2024-09-17-14-21-01/
     RDKit          3D

 40 44  0  0  0  0  0  0  0  0999 V2000
   -7.9040    3.9820   27.1177 C   0  0  0  0  0  0  0  0  0  0  0  0
   -8.2057    2.8231   26.8733 C   0  0  0  0  0  0  0  0  0  0  0  0
   -7.0130    4.3706   28.1140 C   0  0  0  0  0  0  0  0  0  0  0  0
   -7.4093    1.7370   27.3857 C   0  0  0  0  0  0  0  0  0  0  0  0
   -6.1943    2.1490   28.0403 C   0  0  0  0  0  0  0  0  0  0  0  0
   -5.9708    3.4680   28.3199 C   0  0  0  0  0  0  0  0  0  0  0  0
   -8.9048    5.0960   26.7137 C   0  0  2  0  0  0  0  0  0  0  0  0
   -9.5182    4.9704   25.5199 N   0  0  0  0  0  0  0  0  0  0  0  0
   -5.2373    1.0830   28.4411 C   0  0  0  0  0  0  0  0  0  0  0  0
   -5.5181   -0.2526   28.4947 C   0  0  0  0  0  0  0  0  0  0  0  0
   -4.5654   -1.1642   28.9934 C   0  0  0  0  0  0  0  0  0  0  0  0
   -3.2975   -0.6935   29.3679 C   0  0  0  0  0  0  0  0  0  0  0  0
   -2.9926    0.6462   29.2219 C   0  0  0  0  0  0  0  0  0  0  0  0
   -3.8758    1.5046   28.8283 C   0  0  0  0  0  0  0  0  0  0  0  0
   -8.8713    6.6846   27.4919 Br  0  0  0  0  0  0  0  0  0  0  0  0
  -10.5823    4.2122   25.3532 C   0  0  0  0  0  0  0  0  0  0  0  0
  -11.3911    3.8461   26.3049 C   0  0  0  0  0  0  0  0  0  0  0  0
  -11.3577    4.1162   27.5238 C   0  0  0  0  0  0  0  0  0  0  0  0
  -12.3310    3.6937   28.5834 C   0  0  0  0  0  0  0  0  0  0  0  0
  -13.4518    3.0746   28.1892 C   0  0  0  0  0  0  0  0  0  0  0  0
  -13.6206    2.8461   26.8134 C   0  0  0  0  0  0  0  0  0  0  0  0
  -12.6750    3.2293   25.8783 C   0  0  0  0  0  0  0  0  0  0  0  0
  -10.7356    3.8268   24.0755 N   0  0  0  0  0  0  0  0  0  0  0  0
   -9.7915    4.1605   23.1249 C   0  0  0  0  0  0  0  0  0  0  0  0
  -10.3707    4.9330   22.2710 C   0  0  0  0  0  0  0  0  0  0  0  0
   -2.3150   -1.7184   29.8893 C   0  0  0  0  0  0  0  0  0  0  0  0
   -1.3107   -2.0459   29.2405 N   0  0  0  0  0  0  0  0  0  0  0  0
   -1.1859   -2.8370   28.5146 C   0  0  2  0  0  0  0  0  0  0  0  0
   -1.1443   -2.9086   27.4424 C   0  0  0  0  0  0  0  0  0  0  0  0
   -1.2972   -1.6078   26.7021 C   0  0  0  0  0  0  0  0  0  0  0  0
   -1.7728   -1.4773   25.3284 C   0  0  0  0  0  0  0  0  0  0  0  0
   -0.3294   -0.9093   28.9501 C   0  0  0  0  0  0  0  0  0  0  0  0
   -0.8782   -0.4661   27.4506 C   0  0  0  0  0  0  0  0  0  0  0  0
   -4.9401   -2.5672   29.0795 C   0  0  0  0  0  0  0  0  0  0  0  0
   -5.4025   -3.1687   28.0356 C   0  0  0  0  0  0  0  0  0  0  0  0
   -5.5901   -4.5231   27.9770 C   0  0  0  0  0  0  0  0  0  0  0  0
   -5.3113   -5.2492   29.1414 C   0  0  0  0  0  0  0  0  0  0  0  0
   -4.8147   -4.6693   30.2563 C   0  0  0  0  0  0  0  0  0  0  0  0
   -4.5542   -3.3063   30.2735 C   0  0  0  0  0  0  0  0  0  0  0  0
   -1.4630   -4.1561   29.1673 F   0  0  0  0  0  0  0  0  0  0  0  0
  1  7  1  0
  7  8  1  0
  5  9  1  0
  7 15  1  6
  8 16  1  0
 16 17  1  0
 16 23  2  3
 23 24  1  0
 24 25  1  0
 12 26  1  0
 26 27  1  0
 27 28  1  0
 29 30  1  0
 27 32  1  0
 30 33  1  0
 32 33  1  0
 11 34  1  0
 28 40  1  6
 31 30  1  0
 28 29  1  0
  1  2  2  0
  2  4  1  0
  4  5  2  0
  5  6  1  0
  6  3  2  0
  3  1  1  0
  9 10  2  0
 10 11  1  0
 11 12  2  0
 12 13  1  0
 13 14  2  0
 14  9  1  0
 34 35  2  0
 35 36  1  0
 36 37  2  0
 37 38  1  0
 38 39  2  0
 39 34  1  0
 17 18  2  0
 18 19  1  0
 19 20  2  0
 20 21  1  0
 21 22  2  0
 22 17  1  0
M  END
$$$$
