No_7831-complexes_sdf/6BKW-FPZ/2024-09-17-14-21-01/
     RDKit          3D

 20 21  0  0  0  0  0  0  0  0999 V2000
   -7.9040    3.9820   27.1177 C   0  0  0  0  0  0  0  0  0  0  0  0
   -9.0711    4.3164   27.0630 C   0  0  0  0  0  0  0  0  0  0  0  0
   -9.8698    3.9665   25.9494 C   0  0  0  0  0  0  0  0  0  0  0  0
   -7.0332    4.5030   28.2025 C   0  0  0  0  0  0  0  0  0  0  0  0
  -10.9909    4.7237   25.5958 C   0  0  0  0  0  0  0  0  0  0  0  0
   -7.5840    5.4918   28.9036 N   0  0  0  0  0  0  0  0  0  0  0  0
  -11.7865    4.4111   26.2861 C   0  0  0  0  0  0  0  0  0  0  0  0
  -11.5074    4.5350   27.8146 C   0  0  0  0  0  0  0  0  0  0  0  0
  -10.0723    4.2402   28.0705 C   0  0  0  0  0  0  0  0  0  0  0  0
   -5.7542    4.1567   28.2210 N   0  0  0  0  0  0  0  0  0  0  0  0
  -13.2906    4.7869   26.1708 C   0  0  0  0  0  0  0  0  0  0  0  0
  -14.1085    3.7121   26.1547 C   0  0  0  0  0  0  0  0  0  0  0  0
  -13.8156    2.5497   26.3386 C   0  0  0  0  0  0  0  0  0  0  0  0
  -14.7828    1.4782   26.3044 C   0  0  0  0  0  0  0  0  0  0  0  0
  -15.5394    4.0205   26.2762 C   0  0  0  0  0  0  0  0  0  0  0  0
  -16.5207    3.0464   26.2404 C   0  0  0  0  0  0  0  0  0  0  0  0
  -16.0830    1.7598   26.3161 C   0  0  0  0  0  0  0  0  0  0  0  0
  -17.1092    0.6780   26.3492 C   0  0  0  0  0  0  0  0  0  0  0  0
  -18.0458    0.7255   27.2589 C   0  0  0  0  0  0  0  0  0  0  0  0
  -19.0476   -0.3267   27.3020 C   0  0  0  0  0  0  0  0  0  0  0  0
  1  2  1  0
  1  4  1  0
  4  6  2  0
  4 10  1  0
  7 11  1  0
 11 12  1  0
 17 18  1  0
 18 19  2  3
 19 20  1  0
 12 13  2  0
 13 14  1  0
 14 17  2  0
 17 16  1  0
 16 15  2  0
 15 12  1  0
  2  3  2  0
  3  5  1  0
  5  7  2  0
  7  8  1  0
  8  9  2  0
  9  2  1  0
M  END
$$$$
