No_7766-complexes_sdf/6BKW-FPZ/2024-09-17-14-21-01/
     RDKit          3D

 17 18  0  0  0  0  0  0  0  0999 V2000
   -7.9040    3.9820   27.1177 C   0  0  0  0  0  0  0  0  0  0  0  0
   -8.2057    2.8231   26.8733 C   0  0  0  0  0  0  0  0  0  0  0  0
   -8.7695    5.0740   26.7916 C   0  0  0  0  0  0  0  0  0  0  0  0
   -8.4337    6.4678   27.0913 C   0  0  0  0  0  0  0  0  0  0  0  0
   -9.3742    2.4311   26.2346 C   0  0  0  0  0  0  0  0  0  0  0  0
  -10.2395    3.4267   25.8887 C   0  0  0  0  0  0  0  0  0  0  0  0
   -9.9567    4.7548   26.1374 C   0  0  0  0  0  0  0  0  0  0  0  0
   -7.8894    6.9001   28.1379 N   0  0  0  0  0  0  0  0  0  0  0  0
   -8.5657    7.3336   26.1222 O   0  0  0  0  0  0  0  0  0  0  0  0
   -7.2485    1.6807   27.2906 C   0  0  2  0  0  0  0  0  0  0  0  0
   -6.1601    1.9923   27.8814 O   0  0  0  0  0  0  0  0  0  0  0  0
   -7.4963    0.3466   26.9981 C   0  0  0  0  0  0  0  0  0  0  0  0
   -8.5046   -0.2106   26.5403 C   0  0  0  0  0  0  0  0  0  0  0  0
   -9.6847    0.3041   25.9755 C   0  0  0  0  0  0  0  0  0  0  0  0
   -9.7915    1.2322   25.8975 C   0  0  0  0  0  0  0  0  0  0  0  0
   -5.2400    1.0010   28.0779 C   0  0  0  0  0  0  0  0  0  0  0  0
   -5.6000   -0.1700   27.9575 C   0  0  0  0  0  0  0  0  0  0  0  0
  3  4  1  0
  4  8  1  0
  4  9  2  0
  2 10  1  0
 10 11  1  6
 10 12  1  0
 12 13  2  0
 13 14  1  0
  5 15  1  0
 14 15  2  0
 11 16  1  0
 16 17  2  0
  1  2  2  0
  2  5  1  0
  5  6  2  0
  6  7  1  0
  7  3  2  0
  3  1  1  0
M  END
$$$$
