No_7863-complexes_sdf/6BKW-FPZ/2024-09-17-14-21-01/
     RDKit          3D

 14 15  0  0  0  0  0  0  0  0999 V2000
   -7.9040    3.9820   27.1177 C   0  0  0  0  0  0  0  0  0  0  0  0
   -7.8663    4.8694   27.9238 C   0  0  0  0  0  0  0  0  0  0  0  0
   -9.0491    3.8523   26.2542 C   0  0  0  0  0  0  0  0  0  0  0  0
   -8.7661    5.9491   27.9690 C   0  0  0  0  0  0  0  0  0  0  0  0
   -9.9295    4.8502   26.2323 C   0  0  0  0  0  0  0  0  0  0  0  0
   -9.8077    5.9288   27.0933 C   0  0  0  0  0  0  0  0  0  0  0  0
   -9.0726    2.7074   25.3087 C   0  0  0  0  0  0  0  0  0  0  0  0
   -8.5824    1.5503   25.7138 N   0  0  0  0  0  0  0  0  0  0  0  0
   -8.0005    1.3657   26.8322 C   0  0  0  0  0  0  0  0  0  0  0  0
   -7.4670    0.0698   27.1573 C   0  0  0  0  0  0  0  0  0  0  0  0
   -8.6307    0.5791   24.7112 C   0  0  0  0  0  0  0  0  0  0  0  0
   -7.5353   -0.8878   26.2243 C   0  0  0  0  0  0  0  0  0  0  0  0
   -8.1333   -0.6689   24.9955 C   0  0  0  0  0  0  0  0  0  0  0  0
   -9.7432    2.9033   24.2577 O   0  0  0  0  0  0  0  0  0  0  0  0
  3  7  1  0
  7  8  1  0
  8  9  1  0
  8 11  1  0
 10 12  1  0
  7 14  2  0
  9 10  1  0
 12 13  1  0
 13 11  1  0
  1  2  2  0
  2  4  1  0
  4  6  2  0
  6  5  1  0
  5  3  2  0
  3  1  1  0
M  END
$$$$
