No_756-complexes_sdf/6BKW-FPZ/2024-09-17-14-21-01/
     RDKit          3D

 16 17  0  0  0  0  0  0  0  0999 V2000
   -7.9040    3.9820   27.1177 C   0  0  0  0  0  0  0  0  0  0  0  0
   -9.0711    4.3164   27.0630 C   0  0  0  0  0  0  0  0  0  0  0  0
   -9.5182    5.5541   27.5777 C   0  0  0  0  0  0  0  0  0  0  0  0
   -7.4468    2.6843   26.6499 C   0  0  0  0  0  0  0  0  0  0  0  0
   -8.3856    1.7878   26.2216 C   0  0  0  0  0  0  0  0  0  0  0  0
   -9.6812    2.2328   26.0889 C   0  0  0  0  0  0  0  0  0  0  0  0
  -10.0147    3.4312   26.5259 C   0  0  0  0  0  0  0  0  0  0  0  0
   -7.9143    0.4677   25.8109 C   0  0  0  0  0  0  0  0  0  0  0  0
   -8.0689    0.0509   24.7032 N   0  0  0  0  0  0  0  0  0  0  0  0
   -7.2734   -0.8470   24.0383 C   0  0  0  0  0  0  0  0  0  0  0  0
   -6.3361   -1.5402   24.7966 C   0  0  0  0  0  0  0  0  0  0  0  0
   -7.0951   -0.2678   26.8353 C   0  0  0  0  0  0  0  0  0  0  0  0
   -6.1620   -1.2074   26.2283 C   0  0  0  0  0  0  0  0  0  0  0  0
   -8.9635    6.6101   27.0955 F   0  0  0  0  0  0  0  0  0  0  0  0
  -10.8956    5.8223   27.2935 F   0  0  0  0  0  0  0  0  0  0  0  0
   -9.3299    5.6283   28.8971 F   0  0  0  0  0  0  0  0  0  0  0  0
  2  3  1  0
  5  8  1  0
  3 14  1  0
  3 15  1  0
  3 16  1  0
  1  2  2  0
  2  7  1  0
  7  6  2  0
  6  5  1  0
  5  4  2  0
  4  1  1  0
  8  9  2  0
  9 10  1  0
 10 11  2  0
 11 13  1  0
 13 12  2  0
 12  8  1  0
M  END
$$$$
