No_73-complexes_sdf/6BKW-FPZ/2024-09-17-14-21-01/
     RDKit          3D

 12 13  0  0  0  0  0  0  0  0999 V2000
   -7.7129    4.2099   27.0854 C   0  0  0  0  0  0  0  0  0  0  0  0
   -7.7814    5.1722   27.8972 C   0  0  0  0  0  0  0  0  0  0  0  0
   -8.7889    3.2468   27.2220 C   0  0  0  0  0  0  0  0  0  0  0  0
   -9.8671    3.4455   28.0317 C   0  0  0  0  0  0  0  0  0  0  0  0
   -8.9592    5.6476   28.6200 C   0  0  0  0  0  0  0  0  0  0  0  0
   -9.9658    4.7049   28.7257 C   0  0  0  0  0  0  0  0  0  0  0  0
   -8.6765    1.9196   26.5405 C   0  0  0  0  0  0  0  0  0  0  0  0
   -8.2872    1.8381   25.4803 C   0  0  0  0  0  0  0  0  0  0  0  0
   -8.2304    0.5425   24.7294 C   0  0  0  0  0  0  0  0  0  0  0  0
   -8.5568   -0.5761   25.3646 C   0  0  0  0  0  0  0  0  0  0  0  0
   -8.9995    0.7069   27.2853 C   0  0  0  0  0  0  0  0  0  0  0  0
   -8.9568   -0.4695   26.7597 C   0  0  0  0  0  0  0  0  0  0  0  0
  3  7  1  0
  7  8  2  0
  8  9  1  0
  9 10  2  0
 10 12  1  0
 12 11  2  0
 11  7  1  0
  1  2  2  0
  2  5  1  0
  5  6  2  0
  6  4  1  0
  4  3  2  0
  3  1  1  0
M  END
$$$$
