No_7888-complexes_sdf/6BKW-FPZ/2024-09-17-14-21-01/
     RDKit          3D

 34 39  0  0  0  0  0  0  0  0999 V2000
   -7.9040    3.9820   27.1177 C   0  0  0  0  0  0  0  0  0  0  0  0
   -7.8663    4.8694   27.9238 C   0  0  0  0  0  0  0  0  0  0  0  0
   -7.4698    2.6989   27.4277 C   0  0  0  0  0  0  0  0  0  0  0  0
   -7.9683    1.5964   26.8266 C   0  0  0  0  0  0  0  0  0  0  0  0
   -7.5288    0.3101   27.1202 C   0  0  0  0  0  0  0  0  0  0  0  0
   -8.3245   -0.7895   26.7699 C   0  0  0  0  0  0  0  0  0  0  0  0
   -9.4233   -0.5403   25.9713 C   0  0  0  0  0  0  0  0  0  0  0  0
   -9.1803    1.5623   26.0614 C   0  0  0  0  0  0  0  0  0  0  0  0
   -9.5938    3.0486   25.7336 C   0  0  0  0  0  0  0  0  0  0  0  0
   -9.8288    0.5883   25.6201 C   0  0  0  0  0  0  0  0  0  0  0  0
  -10.6515    3.3390   24.8649 C   0  0  0  0  0  0  0  0  0  0  0  0
   -8.9021    4.1389   26.2992 C   0  0  0  0  0  0  0  0  0  0  0  0
   -8.1482    6.2662   27.6349 N   0  0  0  0  0  0  0  0  0  0  0  0
   -9.0952    6.6177   26.7558 C   0  0  0  0  0  0  0  0  0  0  0  0
   -9.5359    5.4434   26.0473 C   0  0  0  0  0  0  0  0  0  0  0  0
  -11.9119    3.2135   25.2200 C   0  0  0  0  0  0  0  0  0  0  0  0
  -10.3649    3.4966   23.4875 C   0  0  0  0  0  0  0  0  0  0  0  0
  -11.2657    3.8621   22.5344 C   0  0  0  0  0  0  0  0  0  0  0  0
  -12.9723    3.6147   24.3331 C   0  0  0  0  0  0  0  0  0  0  0  0
  -12.6399    3.9129   22.9970 C   0  0  0  0  0  0  0  0  0  0  0  0
   -6.3293    0.1114   27.9896 C   0  0  0  0  0  0  0  0  0  0  0  0
   -5.1761    0.9175   27.7838 C   0  0  0  0  0  0  0  0  0  0  0  0
   -4.0653    0.7462   28.6851 C   0  0  0  0  0  0  0  0  0  0  0  0
   -4.1065   -0.2359   29.6867 C   0  0  0  0  0  0  0  0  0  0  0  0
   -6.1990   -0.8932   28.9979 C   0  0  0  0  0  0  0  0  0  0  0  0
   -5.1547   -1.0093   29.8501 C   0  0  0  0  0  0  0  0  0  0  0  0
   -2.8961   -0.2770   30.6017 C   0  0  2  0  0  0  0  0  0  0  0  0
   -1.9842   -1.3054   30.3404 C   0  0  0  0  0  0  0  0  0  0  0  0
   -1.6468   -2.0818   31.3486 N   0  0  0  0  0  0  0  0  0  0  0  0
   -2.0536   -1.8523   32.5135 C   0  0  0  0  0  0  0  0  0  0  0  0
   -2.8929   -0.7787   32.8486 C   0  0  0  0  0  0  0  0  0  0  0  0
   -3.1434    0.2402   31.9104 C   0  0  0  0  0  0  0  0  0  0  0  0
   -0.7057   -3.1440   31.0142 C   0  0  0  0  0  0  0  0  0  0  0  0
   -1.6681   -1.4480   29.1415 O   0  0  0  0  0  0  0  0  0  0  0  0
  1  3  1  0
  3  4  1  0
  8  9  1  0
  9 11  1  0
  9 12  1  0
  5 21  1  0
 27 24  1  1
 27 28  1  0
 28 29  1  0
 29 30  1  0
 27 32  1  0
 31 32  1  0
 29 33  1  0
 28 34  2  0
 31 30  1  0
  1  2  2  0
  2 13  1  0
 13 14  2  0
 14 15  1  0
 15 12  2  0
 12  1  1  0
 21 22  2  0
 22 23  1  0
 23 24  2  0
 24 26  1  0
 26 25  2  0
 25 21  1  0
 11 16  2  0
 16 19  1  0
 19 20  2  0
 20 18  1  0
 18 17  2  0
 17 11  1  0
  4  5  2  0
  5  6  1  0
  6  7  2  0
  7 10  1  0
 10  8  2  0
  8  4  1  0
M  END
$$$$
