No_714-complexes_sdf/6BKW-FPZ/2024-09-17-14-21-01/
     RDKit          3D

 39 45  0  0  0  0  0  0  0  0999 V2000
   -7.7129    4.2099   27.0854 C   0  0  0  0  0  0  0  0  0  0  0  0
   -7.7814    5.1722   27.8972 C   0  0  0  0  0  0  0  0  0  0  0  0
   -7.3155    2.9699   27.6145 C   0  0  0  0  0  0  0  0  0  0  0  0
   -7.9010    1.7962   27.2023 C   0  0  0  0  0  0  0  0  0  0  0  0
   -7.4626    0.5915   27.6802 C   0  0  0  0  0  0  0  0  0  0  0  0
   -8.5683    6.3779   27.5800 C   0  0  0  0  0  0  0  0  0  0  0  0
   -8.2248   -0.5935   27.4700 C   0  0  0  0  0  0  0  0  0  0  0  0
   -9.1645    1.7620   26.6025 C   0  0  0  0  0  0  0  0  0  0  0  0
   -9.8549    0.6507   26.3454 C   0  0  0  0  0  0  0  0  0  0  0  0
  -11.1452    0.7106   25.6324 C   0  0  0  0  0  0  0  0  0  0  0  0
   -9.3778   -0.5247   26.8231 C   0  0  0  0  0  0  0  0  0  0  0  0
  -12.0369    1.5839   25.8645 C   0  0  0  0  0  0  0  0  0  0  0  0
  -13.1944    1.7624   25.1770 C   0  0  0  0  0  0  0  0  0  0  0  0
  -11.3038   -0.1660   24.5404 C   0  0  0  0  0  0  0  0  0  0  0  0
  -12.4779   -0.0256   23.7677 C   0  0  0  0  0  0  0  0  0  0  0  0
  -13.3956    0.9422   24.0964 C   0  0  0  0  0  0  0  0  0  0  0  0
   -8.6890    4.2675   26.0513 C   0  0  0  0  0  0  0  0  0  0  0  0
   -9.3240    5.4386   25.6406 C   0  0  0  0  0  0  0  0  0  0  0  0
   -9.1988    6.5676   26.4459 C   0  0  0  0  0  0  0  0  0  0  0  0
   -9.5829    3.1283   26.0262 C   0  0  0  0  0  0  0  0  0  0  0  0
  -14.6534    0.9710   23.3127 C   0  0  0  0  0  0  0  0  0  0  0  0
  -15.6179    1.5171   23.5225 O   0  0  0  0  0  0  0  0  0  0  0  0
  -14.4966    0.5137   22.0182 N   0  0  0  0  0  0  0  0  0  0  0  0
  -15.5645    0.5429   21.0849 C   0  0  0  0  0  0  0  0  0  0  0  0
   -7.6938   -1.8732   28.0434 C   0  0  0  0  0  0  0  0  0  0  0  0
   -8.3932   -2.7535   28.4330 N   0  0  0  0  0  0  0  0  0  0  0  0
   -8.1185   -3.7604   29.0491 C   0  0  0  0  0  0  0  0  0  0  0  0
   -6.4270   -1.9305   28.2092 O   0  0  0  0  0  0  0  0  0  0  0  0
   -8.7001   -4.0429   30.2475 C   0  0  0  0  0  0  0  0  0  0  0  0
   -9.3836   -3.4485   30.7728 C   0  0  0  0  0  0  0  0  0  0  0  0
  -10.1781   -2.3531   30.0583 C   0  0  0  0  0  0  0  0  0  0  0  0
   -9.8167   -2.3639   28.7628 C   0  0  0  0  0  0  0  0  0  0  0  0
  -15.3430    0.0541   19.9722 C   0  0  0  0  0  0  0  0  0  0  0  0
  -14.0676   -0.4785   19.6070 C   0  0  0  0  0  0  0  0  0  0  0  0
  -13.0147   -0.4695   20.5120 C   0  0  0  0  0  0  0  0  0  0  0  0
  -13.2010    0.0023   21.6922 C   0  0  2  0  0  0  0  0  0  0  0  0
  -12.1933   -0.2074   22.5933 C   0  0  2  0  0  0  0  0  0  0  0  0
  -11.4212   -1.4653   22.3176 C   0  0  0  0  0  0  0  0  0  0  0  0
  -10.8072   -2.0752   23.2019 C   0  0  0  0  0  0  0  0  0  0  0  0
  9 10  1  0
 16 21  1  0
 21 22  2  0
 21 23  1  0
 23 24  1  0
  7 25  1  0
 25 26  1  0
 26 27  1  0
 25 28  2  0
 27 29  1  0
 30 31  1  0
 26 32  1  0
 33 34  1  0
 23 36  1  0
 36 35  1  1
 15 37  1  0
 36 37  1  0
 37 38  1  1
 38 39  2  0
 24 33  1  0
 34 35  1  0
 29 30  1  0
 31 32  1  0
 10 12  2  0
 12 13  1  0
 13 16  2  0
 16 15  1  0
 15 14  2  0
 14 10  1  0
  4  5  1  0
  5  7  2  0
  7 11  1  0
 11  9  2  0
  9  8  1  0
  1  2  2  0
  2  6  1  0
  6 19  2  0
 19 18  1  0
 18 17  2  0
  1  3  1  0
  3  4  2  0
  4  8  1  0
  8 20  2  0
 20 17  1  0
 17  1  1  0
M  END
$$$$
