No_7329-complexes_sdf/6BKW-FPZ/2024-09-17-14-21-01/
     RDKit          3D

 25 27  0  0  0  0  0  0  0  0999 V2000
   -7.9040    3.9820   27.1177 C   0  0  0  0  0  0  0  0  0  0  0  0
   -8.2057    2.8231   26.8733 C   0  0  0  0  0  0  0  0  0  0  0  0
   -9.2962    2.4021   26.1155 C   0  0  0  0  0  0  0  0  0  0  0  0
   -8.7358    5.0662   26.5917 C   0  0  0  0  0  0  0  0  0  0  0  0
   -9.7618    4.7023   25.7546 C   0  0  0  0  0  0  0  0  0  0  0  0
  -10.0066    3.4105   25.4922 C   0  0  0  0  0  0  0  0  0  0  0  0
   -8.3936    6.4769   26.8843 C   0  0  0  0  0  0  0  0  0  0  0  0
   -8.6493    6.7879   28.0308 F   0  0  0  0  0  0  0  0  0  0  0  0
   -9.0864    7.3276   26.0150 F   0  0  0  0  0  0  0  0  0  0  0  0
   -7.0810    6.7446   26.7987 F   0  0  0  0  0  0  0  0  0  0  0  0
   -7.3526    1.6715   27.5017 C   0  0  0  0  0  0  0  0  0  0  0  0
   -5.9577    1.8657   27.7299 C   0  0  0  0  0  0  0  0  0  0  0  0
   -5.1964    0.8160   28.2721 C   0  0  0  0  0  0  0  0  0  0  0  0
   -5.7556   -0.4332   28.4619 C   0  0  0  0  0  0  0  0  0  0  0  0
   -7.6728    0.3019   27.5429 C   0  0  0  0  0  0  0  0  0  0  0  0
   -7.0085   -0.6503   28.1095 C   0  0  0  0  0  0  0  0  0  0  0  0
   -4.8875   -1.4885   29.0678 C   0  0  0  0  0  0  0  0  0  0  0  0
   -3.8456   -1.1639   29.1766 C   0  0  0  0  0  0  0  0  0  0  0  0
   -3.1068    0.1391   29.0082 C   0  0  0  0  0  0  0  0  0  0  0  0
   -3.8242    1.0982   28.5702 C   0  0  0  0  0  0  0  0  0  0  0  0
   -2.8227   -2.2472   29.8994 C   0  0  0  0  0  0  0  0  0  0  0  0
   -1.9452   -2.5755   29.3902 O   0  0  0  0  0  0  0  0  0  0  0  0
   -3.2645   -2.6081   31.0823 O   0  0  0  0  0  0  0  0  0  0  0  0
  -11.1231    3.1269   24.5915 C   0  0  0  0  0  0  0  0  0  0  0  0
  -12.3324    2.8485   25.0789 C   0  0  0  0  0  0  0  0  0  0  0  0
  4  7  1  0
  7  8  1  0
  7  9  1  0
  7 10  1  0
  2 11  1  0
 18 21  1  0
 21 22  2  0
 21 23  1  0
  6 24  1  0
 24 25  2  0
  1  2  2  0
  2  3  1  0
  3  6  2  0
  6  5  1  0
  5  4  2  0
  4  1  1  0
 14 17  2  0
 17 18  1  0
 18 19  2  0
 19 20  1  0
 20 13  2  0
 11 12  2  0
 12 13  1  0
 13 14  1  0
 14 16  1  0
 16 15  2  0
 15 11  1  0
M  END
$$$$
