No_7695-complexes_sdf/6BKW-FPZ/2024-09-17-14-21-01/
     RDKit          3D

 16 17  0  0  0  0  0  0  0  0999 V2000
   -7.7129    4.2099   27.0854 C   0  0  0  0  0  0  0  0  0  0  0  0
   -8.9133    4.4736   27.0998 C   0  0  0  0  0  0  0  0  0  0  0  0
   -9.7135    3.9633   26.0300 C   0  0  0  0  0  0  0  0  0  0  0  0
   -6.8655    4.8824   28.1822 C   0  0  0  0  0  0  0  0  0  0  0  0
   -9.2221    2.8459   25.3619 C   0  0  0  0  0  0  0  0  0  0  0  0
   -8.0164    2.2957   25.7889 C   0  0  0  0  0  0  0  0  0  0  0  0
   -7.3052    2.9474   26.8072 C   0  0  0  0  0  0  0  0  0  0  0  0
  -10.0330    2.1843   24.3790 C   0  0  0  0  0  0  0  0  0  0  0  0
  -10.1884    2.8674   23.1331 C   0  0  0  0  0  0  0  0  0  0  0  0
   -9.8891    4.2405   22.9801 C   0  0  0  0  0  0  0  0  0  0  0  0
  -10.9025    2.2131   22.0637 C   0  0  0  0  0  0  0  0  0  0  0  0
  -12.0136    2.3022   21.8318 C   0  0  0  0  0  0  0  0  0  0  0  0
  -10.0272    1.2708   21.3197 C   0  0  0  0  0  0  0  0  0  0  0  0
  -10.6125    0.1558   20.6449 C   0  0  0  0  0  0  0  0  0  0  0  0
  -12.7238    1.3411   20.8923 C   0  0  0  0  0  0  0  0  0  0  0  0
  -11.9351    0.3668   20.2924 C   0  0  0  0  0  0  0  0  0  0  0  0
  1  4  1  0
  5  8  1  0
  8  9  2  3
  9 10  1  0
  9 11  1  0
 11 12  2  0
 12 15  1  0
 15 16  2  0
 16 14  1  0
 14 13  2  0
 13 11  1  0
  1  2  2  0
  2  3  1  0
  3  5  2  0
  5  6  1  0
  6  7  2  0
  7  1  1  0
M  END
$$$$
