No_7623-complexes_sdf/6BKW-FPZ/2024-09-17-14-21-01/
     RDKit          3D

 35 39  0  0  0  0  0  0  0  0999 V2000
   -7.7129    4.2099   27.0854 C   0  0  0  0  0  0  0  0  0  0  0  0
   -8.9133    4.4736   27.0998 C   0  0  0  0  0  0  0  0  0  0  0  0
   -9.4643    5.5426   27.7628 C   0  0  0  0  0  0  0  0  0  0  0  0
   -7.2009    2.9448   26.6134 C   0  0  0  0  0  0  0  0  0  0  0  0
   -8.1365    1.9533   26.2981 C   0  0  0  0  0  0  0  0  0  0  0  0
   -9.4514    2.2934   26.2667 C   0  0  0  0  0  0  0  0  0  0  0  0
   -9.8600    3.4834   26.7068 C   0  0  0  0  0  0  0  0  0  0  0  0
   -7.6136    0.6633   25.8927 C   0  0  0  0  0  0  0  0  0  0  0  0
   -7.9446    0.1061   24.8292 N   0  0  0  0  0  0  0  0  0  0  0  0
   -7.3647   -1.0658   24.4737 C   0  0  0  0  0  0  0  0  0  0  0  0
   -6.7507   -0.0284   26.8129 C   0  0  0  0  0  0  0  0  0  0  0  0
   -6.2119   -1.2303   26.5739 C   0  0  0  0  0  0  0  0  0  0  0  0
   -5.3759   -1.8935   27.4860 C   0  0  0  0  0  0  0  0  0  0  0  0
   -6.5314   -1.7587   25.3005 C   0  0  0  0  0  0  0  0  0  0  0  0
   -4.3644   -1.6352   27.9728 C   0  0  0  0  0  0  0  0  0  0  0  0
   -3.6122   -2.3316   29.0313 C   0  0  0  0  0  0  0  0  0  0  0  0
   -2.5110   -1.7285   29.7396 C   0  0  0  0  0  0  0  0  0  0  0  0
   -2.0667   -0.4432   29.3388 C   0  0  0  0  0  0  0  0  0  0  0  0
   -2.7760    0.2837   28.4008 C   0  0  0  0  0  0  0  0  0  0  0  0
   -3.8470   -0.2572   27.7829 C   0  0  0  0  0  0  0  0  0  0  0  0
   -6.0518   -3.2040   27.9221 C   0  0  0  0  0  0  0  0  0  0  0  0
   -6.6257   -3.2871   29.0096 C   0  0  0  0  0  0  0  0  0  0  0  0
   -7.2706   -4.4356   29.5072 C   0  0  0  0  0  0  0  0  0  0  0  0
   -7.2300   -5.5064   28.6415 C   0  0  0  0  0  0  0  0  0  0  0  0
   -6.0051   -4.3265   27.1204 C   0  0  0  0  0  0  0  0  0  0  0  0
   -6.5640   -5.4623   27.5012 C   0  0  0  0  0  0  0  0  0  0  0  0
   -7.8059   -6.6804   29.0480 F   0  0  0  0  0  0  0  0  0  0  0  0
   -1.7722   -2.4675   30.7427 C   0  0  0  0  0  0  0  0  0  0  0  0
   -2.2555   -3.3791   31.2471 C   0  0  0  0  0  0  0  0  0  0  0  0
   -1.7820   -3.9435   32.4840 C   0  0  0  0  0  0  0  0  0  0  0  0
   -0.5932   -3.4669   32.9948 C   0  0  0  0  0  0  0  0  0  0  0  0
   -0.0041   -2.3392   32.4318 C   0  0  0  0  0  0  0  0  0  0  0  0
   -0.6242   -1.7573   31.3615 C   0  0  0  0  0  0  0  0  0  0  0  0
   -7.7383   -1.5605   23.3438 F   0  0  0  0  0  0  0  0  0  0  0  0
   -6.7467    5.0089   27.6158 F   0  0  0  0  0  0  0  0  0  0  0  0
  5  8  1  0
 12 13  1  0
 13 21  1  0
 24 27  1  0
 17 28  1  0
 10 34  1  0
  1 35  1  0
 13 15  1  0
  3  2  1  0
 15 16  2  0
 16 17  1  0
 17 18  2  0
 18 19  1  0
 19 20  2  0
 20 15  1  0
  8  9  2  0
  9 10  1  0
 10 14  2  0
 14 12  1  0
 12 11  2  0
 11  8  1  0
 21 22  2  0
 22 23  1  0
 23 24  2  0
 24 26  1  0
 26 25  2  0
 25 21  1  0
  1  2  2  0
  2  7  1  0
  7  6  2  0
  6  5  1  0
  5  4  2  0
  4  1  1  0
 28 29  2  0
 29 30  1  0
 30 31  2  0
 31 32  1  0
 32 33  2  0
 33 28  1  0
M  END
$$$$
