No_7816-complexes_sdf/6BKW-FPZ/2024-09-17-14-21-01/
     RDKit          3D

 35 40  0  0  0  0  0  0  0  0999 V2000
   -7.9040    3.9820   27.1177 C   0  0  0  0  0  0  0  0  0  0  0  0
   -8.2057    2.8231   26.8733 C   0  0  0  0  0  0  0  0  0  0  0  0
   -8.7695    5.0740   26.7916 C   0  0  0  0  0  0  0  0  0  0  0  0
   -9.9618    4.7598   26.1630 C   0  0  0  0  0  0  0  0  0  0  0  0
   -9.4200    2.4524   26.2849 C   0  0  0  0  0  0  0  0  0  0  0  0
  -10.2590    3.4815   25.9250 C   0  0  0  0  0  0  0  0  0  0  0  0
   -8.3840    6.4693   27.0829 C   0  0  0  0  0  0  0  0  0  0  0  0
   -7.9676    7.4862   26.9931 N   0  0  0  0  0  0  0  0  0  0  0  0
   -7.2799    1.6688   27.3023 C   0  0  0  0  0  0  0  0  0  0  0  0
   -6.1104    1.9806   27.8470 N   0  0  0  0  0  0  0  0  0  0  0  0
   -5.2659    0.9037   28.1757 C   0  0  0  0  0  0  0  0  0  0  0  0
   -5.5765   -0.2265   27.9515 C   0  0  0  0  0  0  0  0  0  0  0  0
   -7.4362    0.2954   27.1546 C   0  0  0  0  0  0  0  0  0  0  0  0
   -8.8008    0.0262   26.5822 C   0  0  0  0  0  0  0  0  0  0  0  0
   -6.6512   -0.6117   27.5243 C   0  0  0  0  0  0  0  0  0  0  0  0
   -9.7424    1.0653   26.0901 C   0  0  0  0  0  0  0  0  0  0  0  0
   -3.9948    1.4660   28.7336 N   0  0  0  0  0  0  0  0  0  0  0  0
  -11.5246    3.2224   25.1734 C   0  0  0  0  0  0  0  0  0  0  0  0
  -11.5713    3.6066   23.9054 C   0  0  0  0  0  0  0  0  0  0  0  0
  -12.6601    3.6173   23.1539 C   0  0  0  0  0  0  0  0  0  0  0  0
  -12.7433    3.4429   25.8904 C   0  0  0  0  0  0  0  0  0  0  0  0
  -12.7968    3.1829   27.3207 C   0  0  0  0  0  0  0  0  0  0  0  0
  -13.9398    3.3914   25.1521 C   0  0  0  0  0  0  0  0  0  0  0  0
  -13.8959    3.6354   23.7939 C   0  0  0  0  0  0  0  0  0  0  0  0
  -13.4403    4.0507   28.0474 C   0  0  0  0  0  0  0  0  0  0  0  0
  -13.4977    3.9103   29.4926 C   0  0  0  0  0  0  0  0  0  0  0  0
  -12.7177    2.8414   30.0788 C   0  0  0  0  0  0  0  0  0  0  0  0
  -12.1057    2.1661   27.9813 C   0  0  0  0  0  0  0  0  0  0  0  0
  -12.1321    1.9807   29.3336 C   0  0  0  0  0  0  0  0  0  0  0  0
   -9.3506   -1.3582   26.5538 C   0  0  0  0  0  0  0  0  0  0  0  0
   -9.7983   -1.8550   27.6935 C   0  0  0  0  0  0  0  0  0  0  0  0
  -10.2763   -3.0975   27.9204 C   0  0  0  0  0  0  0  0  0  0  0  0
  -10.2752   -3.8852   26.7635 C   0  0  0  0  0  0  0  0  0  0  0  0
   -9.3055   -2.1649   25.4859 C   0  0  0  0  0  0  0  0  0  0  0  0
   -9.7843   -3.4433   25.5741 C   0  0  0  0  0  0  0  0  0  0  0  0
  3  7  1  0
  7  8  3  0
 11 17  1  0
  6 18  1  0
 21 22  1  0
 14 30  1  0
 30 31  2  0
 31 32  1  0
 32 33  2  0
 33 35  1  0
 35 34  2  0
 34 30  1  0
  5 16  1  0
 16 14  2  0
 14 13  1  0
  9  2  1  0
 22 25  2  0
 25 26  1  0
 26 27  2  0
 27 29  1  0
 29 28  2  0
 28 22  1  0
 18 19  2  0
 19 20  1  0
 20 24  2  0
 24 23  1  0
 23 21  2  0
 21 18  1  0
  9 10  2  0
 10 11  1  0
 11 12  2  0
 12 15  1  0
 15 13  2  0
 13  9  1  0
  1  2  2  0
  2  5  1  0
  5  6  2  0
  6  4  1  0
  4  3  2  0
  3  1  1  0
M  END
$$$$
