No_703-complexes_sdf/6BKW-FPZ/2024-09-17-14-21-01/
     RDKit          3D

 36 39  0  0  0  0  0  0  0  0999 V2000
   -7.7129    4.2099   27.0854 C   0  0  0  0  0  0  0  0  0  0  0  0
   -7.7814    5.1722   27.8972 C   0  0  0  0  0  0  0  0  0  0  0  0
   -8.8776    3.8408   26.3416 C   0  0  0  0  0  0  0  0  0  0  0  0
   -9.9844    4.6492   26.4743 C   0  0  0  0  0  0  0  0  0  0  0  0
   -8.8033    6.1375   27.8728 C   0  0  0  0  0  0  0  0  0  0  0  0
   -9.9554    5.8280   27.1737 C   0  0  0  0  0  0  0  0  0  0  0  0
   -8.8740    2.6184   25.5584 C   0  0  0  0  0  0  0  0  0  0  0  0
   -9.7481    2.4811   24.4970 C   0  0  0  0  0  0  0  0  0  0  0  0
   -9.7537    1.3389   23.7601 C   0  0  0  0  0  0  0  0  0  0  0  0
   -8.7872    0.3087   24.0451 C   0  0  0  0  0  0  0  0  0  0  0  0
   -7.9652    0.4384   25.1261 C   0  0  0  0  0  0  0  0  0  0  0  0
   -7.9663    1.5885   25.9116 C   0  0  0  0  0  0  0  0  0  0  0  0
  -10.5650    0.9769   22.6179 C   0  0  0  0  0  0  0  0  0  0  0  0
  -10.3781    0.2139   21.7773 N   0  0  0  0  0  0  0  0  0  0  0  0
  -11.1741   -0.0259   20.7153 C   0  0  0  0  0  0  0  0  0  0  0  0
  -12.1343    0.8838   20.4765 C   0  0  0  0  0  0  0  0  0  0  0  0
  -11.6377    1.9684   22.2370 C   0  0  0  0  0  0  0  0  0  0  0  0
  -12.4073    1.8388   21.2384 C   0  0  0  0  0  0  0  0  0  0  0  0
   -6.6823    5.5963   28.5959 F   0  0  0  0  0  0  0  0  0  0  0  0
   -7.0032   -0.6216   25.4307 C   0  0  0  0  0  0  0  0  0  0  0  0
   -6.4235   -1.2379   24.5829 O   0  0  0  0  0  0  0  0  0  0  0  0
   -6.4446   -0.6186   26.6734 O   0  0  0  0  0  0  0  0  0  0  0  0
   -5.8908   -1.5217   27.2198 C   0  0  0  0  0  0  0  0  0  0  0  0
   -4.8652   -1.4354   27.7715 C   0  0  0  0  0  0  0  0  0  0  0  0
   -4.1081   -2.5362   28.4810 C   0  0  0  0  0  0  0  0  0  0  0  0
   -4.7899   -3.7341   28.4973 C   0  0  0  0  0  0  0  0  0  0  0  0
   -6.3754   -2.9271   27.2555 C   0  0  0  0  0  0  0  0  0  0  0  0
   -5.9000   -3.8891   27.8824 C   0  0  0  0  0  0  0  0  0  0  0  0
   -4.0554   -0.0764   27.9225 C   0  0  0  0  0  0  0  0  0  0  0  0
   -2.8573    0.0184   27.6836 C   0  0  0  0  0  0  0  0  0  0  0  0
   -2.2351    0.6816   26.9528 C   0  0  0  0  0  0  0  0  0  0  0  0
   -2.0215   -0.6462   28.8198 C   0  0  0  0  0  0  0  0  0  0  0  0
   -2.9389    1.3890   25.9525 N   0  0  0  0  0  0  0  0  0  0  0  0
   -0.7070   -0.8625   28.4440 N   0  0  0  0  0  0  0  0  0  0  0  0
   -2.3613   -0.7535   29.9986 O   0  0  0  0  0  0  0  0  0  0  0  0
    0.1674   -1.5534   29.3301 C   0  0  0  0  0  0  0  0  0  0  0  0
  3  7  1  0
  9 13  1  0
  2 19  1  0
 11 20  1  0
 20 21  2  0
 20 22  1  0
 22 23  1  0
 24 29  1  0
 29 30  2  3
 30 31  1  0
 30 32  1  0
 31 33  1  0
 32 34  1  0
 32 35  2  0
 34 36  1  0
 13 14  2  0
 14 15  1  0
 15 16  2  0
 16 18  1  0
 18 17  2  0
 17 13  1  0
 23 24  2  0
 24 25  1  0
 25 26  2  0
 26 28  1  0
 28 27  2  0
 27 23  1  0
  1  2  2  0
  2  5  1  0
  5  6  2  0
  6  4  1  0
  4  3  2  0
  3  1  1  0
  7  8  2  0
  8  9  1  0
  9 10  2  0
 10 11  1  0
 11 12  2  0
 12  7  1  0
M  END
$$$$
