No_728-complexes_sdf/6BKW-FPZ/2024-09-17-14-21-01/
     RDKit          3D

 16 18  0  0  0  0  0  0  0  0999 V2000
   -7.2496    3.8871   27.4508 C   0  0  0  0  0  0  0  0  0  0  0  0
   -7.9379    4.9063   27.8518 C   0  0  0  0  0  0  0  0  0  0  0  0
   -9.3460    4.8223   27.8695 C   0  0  0  0  0  0  0  0  0  0  0  0
   -7.8628    2.6163   27.1065 C   0  0  0  0  0  0  0  0  0  0  0  0
   -9.2787    2.5744   27.1970 C   0  0  0  0  0  0  0  0  0  0  0  0
  -10.0108    3.6770   27.6340 C   0  0  0  0  0  0  0  0  0  0  0  0
  -11.4487    3.3729   27.7139 C   0  0  0  0  0  0  0  0  0  0  0  0
  -11.9343    2.4096   28.2605 C   0  0  0  0  0  0  0  0  0  0  0  0
  -13.3167    1.9995   28.2432 C   0  0  0  0  0  0  0  0  0  0  0  0
  -13.7311    0.7648   28.7650 C   0  0  0  0  0  0  0  0  0  0  0  0
  -12.7428   -0.1712   29.1649 C   0  0  0  0  0  0  0  0  0  0  0  0
  -11.3818    0.0767   28.9763 C   0  0  0  0  0  0  0  0  0  0  0  0
  -10.9342    1.3116   28.5565 C   0  0  0  0  0  0  0  0  0  0  0  0
   -9.6122    1.4200   28.1224 C   0  0  0  0  0  0  0  0  0  0  0  0
   -7.3438    6.1331   27.9664 O   0  0  0  0  0  0  0  0  0  0  0  0
  -12.2656    4.7118   27.6086 C   0  0  0  0  0  0  0  0  0  0  0  0
  2 15  1  0
  7 16  1  0
  1  2  2  0
  2  3  1  0
  3  6  2  0
  5  4  2  0
  4  1  1  0
  8  9  1  0
  9 10  2  0
 10 11  1  0
 11 12  2  0
 12 13  1  0
  5  6  1  0
  6  7  1  0
  7  8  2  0
  8 13  1  0
 13 14  2  0
 14  5  1  0
M  END
$$$$
