No_7668-complexes_sdf/6BKW-FPZ/2024-09-17-14-21-01/
     RDKit          3D

 32 36  0  0  0  0  0  0  0  0999 V2000
   -7.9040    3.9820   27.1177 C   0  0  0  0  0  0  0  0  0  0  0  0
   -9.0711    4.3164   27.0630 C   0  0  0  0  0  0  0  0  0  0  0  0
   -9.5294    5.4517   27.7215 C   0  0  0  0  0  0  0  0  0  0  0  0
   -7.4336    2.7132   26.5681 C   0  0  0  0  0  0  0  0  0  0  0  0
   -8.2624    1.7597   26.6581 C   0  0  1  0  0  0  0  0  0  0  0  0
   -9.6598    2.0092   26.6342 C   0  0  0  0  0  0  0  0  0  0  0  0
  -10.0433    3.2712   27.0366 C   0  0  2  0  0  0  0  0  0  0  0  0
   -7.7846    0.4007   26.2002 C   0  0  0  0  0  0  0  0  0  0  0  0
   -6.8054   -0.1508   27.0175 C   0  0  0  0  0  0  0  0  0  0  0  0
   -6.1449   -1.2274   26.6465 C   0  0  0  0  0  0  0  0  0  0  0  0
   -6.5656   -1.8786   25.4582 C   0  0  0  0  0  0  0  0  0  0  0  0
   -8.6694   -0.3923   25.6304 C   0  0  0  0  0  0  0  0  0  0  0  0
   -7.8156   -1.4371   24.8240 C   0  0  0  0  0  0  0  0  0  0  0  0
  -11.4889    3.4407   27.3141 C   0  0  0  0  0  0  0  0  0  0  0  0
  -12.2407    4.0022   26.4119 C   0  0  0  0  0  0  0  0  0  0  0  0
  -12.0310    3.1134   28.6258 C   0  0  0  0  0  0  0  0  0  0  0  0
  -13.3094    3.4271   29.0672 C   0  0  0  0  0  0  0  0  0  0  0  0
  -13.6383    4.3868   26.7701 C   0  0  0  0  0  0  0  0  0  0  0  0
  -14.1224    4.1191   28.0497 C   0  0  0  0  0  0  0  0  0  0  0  0
  -13.8244    3.1217   30.3583 C   0  0  0  0  0  0  0  0  0  0  0  0
  -13.3771    2.1704   31.0158 C   0  0  0  0  0  0  0  0  0  0  0  0
  -14.2417    1.6638   31.7862 C   0  0  0  0  0  0  0  0  0  0  0  0
  -14.0727    4.3958   31.1936 C   0  0  0  0  0  0  0  0  0  0  0  0
  -14.8612    4.1194   32.3706 C   0  0  0  0  0  0  0  0  0  0  0  0
  -14.7328    2.7038   32.8430 C   0  0  0  0  0  0  0  0  0  0  0  0
   -9.5848    0.2096   24.5648 C   0  0  0  0  0  0  0  0  0  0  0  0
  -10.9071   -0.0574   24.7363 C   0  0  0  0  0  0  0  0  0  0  0  0
  -11.8156    0.5137   23.8706 C   0  0  0  0  0  0  0  0  0  0  0  0
  -13.2266    0.2867   24.1012 C   0  0  0  0  0  0  0  0  0  0  0  0
  -11.4499    1.3979   22.8414 C   0  0  0  0  0  0  0  0  0  0  0  0
  -10.0397    1.6765   22.6180 C   0  0  0  0  0  0  0  0  0  0  0  0
   -9.1304    1.0734   23.5491 C   0  0  0  0  0  0  0  0  0  0  0  0
  1  2  1  0
  2  3  2  0
  1  4  1  0
  4  5  1  0
  5  6  1  0
  2  7  1  0
  6  7  1  0
  5  8  1  6
  7 14  1  6
 17 20  1  0
 12 26  1  0
 29 28  1  0
 20 21  2  0
 21 22  1  0
 22 25  2  0
 25 24  1  0
 24 23  2  0
 23 20  1  0
 26 27  2  0
 27 28  1  0
 28 30  2  0
 30 31  1  0
 31 32  2  0
 32 26  1  0
 14 15  2  0
 15 18  1  0
 18 19  2  0
 19 17  1  0
 17 16  2  0
 16 14  1  0
  8  9  2  0
  9 10  1  0
 10 11  2  0
 11 13  1  0
 13 12  2  0
 12  8  1  0
M  END
$$$$
