No_7016-complexes_sdf/6BKW-FPZ/2024-09-17-14-21-01/
     RDKit          3D

 20 22  0  0  0  0  0  0  0  0999 V2000
   -7.7129    4.2099   27.0854 C   0  0  0  0  0  0  0  0  0  0  0  0
   -8.9133    4.4736   27.0998 C   0  0  0  0  0  0  0  0  0  0  0  0
   -9.4643    5.5426   27.7628 C   0  0  0  0  0  0  0  0  0  0  0  0
   -6.8373    4.9942   27.9785 C   0  0  0  0  0  0  0  0  0  0  0  0
   -7.3717    6.0428   28.6744 C   0  0  0  0  0  0  0  0  0  0  0  0
   -8.6869    6.3937   28.5345 C   0  0  0  0  0  0  0  0  0  0  0  0
   -9.8029    3.6153   26.2122 C   0  0  0  0  0  0  0  0  0  0  0  0
  -10.1001    2.3701   26.5024 C   0  0  0  0  0  0  0  0  0  0  0  0
   -9.4848    1.8238   27.7325 C   0  0  0  0  0  0  0  0  0  0  0  0
  -10.7066    1.4495   25.5957 C   0  0  0  0  0  0  0  0  0  0  0  0
  -10.8827    0.3553   25.7920 C   0  0  0  0  0  0  0  0  0  0  0  0
   -9.7768    0.4165   28.0101 C   0  0  0  0  0  0  0  0  0  0  0  0
  -10.4421   -0.3292   27.0769 C   0  0  0  0  0  0  0  0  0  0  0  0
  -10.3264    4.2389   25.0035 C   0  0  0  0  0  0  0  0  0  0  0  0
  -10.5358    3.7660   23.8133 C   0  0  0  0  0  0  0  0  0  0  0  0
  -10.9181    4.7832   22.8167 C   0  0  0  0  0  0  0  0  0  0  0  0
  -11.3231    5.1362   21.9228 C   0  0  0  0  0  0  0  0  0  0  0  0
  -10.7440    2.4449   23.5652 C   0  0  0  0  0  0  0  0  0  0  0  0
  -10.7822    1.9604   24.2911 C   0  0  0  0  0  0  0  0  0  0  0  0
  -11.0625    0.6405   23.9811 F   0  0  0  0  0  0  0  0  0  0  0  0
  2  7  1  0
  7 14  1  0
 14 15  2  0
 15 16  1  0
 16 17  3  0
 15 18  1  0
 10 19  1  0
 18 19  1  0
 19 20  1  0
  7  8  1  0
  1  2  2  0
  2  3  1  0
  3  6  2  0
  6  5  1  0
  5  4  2  0
  4  1  1  0
  8  9  2  0
  9 12  1  0
 12 13  2  0
 13 11  1  0
 11 10  2  0
 10  8  1  0
M  END
$$$$
