No_7573-complexes_sdf/6BKW-FPZ/2024-09-17-14-21-01/
     RDKit          3D

 19 21  0  0  0  0  0  0  0  0999 V2000
   -7.9040    3.9820   27.1177 C   0  0  0  0  0  0  0  0  0  0  0  0
   -7.8663    4.8694   27.9238 C   0  0  0  0  0  0  0  0  0  0  0  0
   -9.0806    3.1428   27.1220 C   0  0  0  0  0  0  0  0  0  0  0  0
   -9.1366    1.9856   26.2314 C   0  0  0  0  0  0  0  0  0  0  0  0
   -8.8079    5.7107   28.1389 C   0  0  0  0  0  0  0  0  0  0  0  0
  -10.1796    5.1453   27.9407 C   0  0  0  0  0  0  0  0  0  0  0  0
  -10.2114    3.9346   27.3083 C   0  0  0  0  0  0  0  0  0  0  0  0
   -8.7288    1.8748   25.2781 C   0  0  0  0  0  0  0  0  0  0  0  0
   -9.0198    0.8983   24.3502 C   0  0  0  0  0  0  0  0  0  0  0  0
   -8.6305    1.0385   22.9666 C   0  0  0  0  0  0  0  0  0  0  0  0
   -9.6315    0.8516   26.9992 C   0  0  0  0  0  0  0  0  0  0  0  0
   -9.9041   -0.3101   26.2249 C   0  0  0  0  0  0  0  0  0  0  0  0
   -9.5266   -0.2475   24.9008 C   0  0  0  0  0  0  0  0  0  0  0  0
  -11.5657    3.3671   27.0965 C   0  0  0  0  0  0  0  0  0  0  0  0
  -12.0784    2.4588   27.6732 C   0  0  0  0  0  0  0  0  0  0  0  0
  -13.3079    1.8549   27.4522 C   0  0  0  0  0  0  0  0  0  0  0  0
  -12.2665    3.8889   25.9460 C   0  0  0  0  0  0  0  0  0  0  0  0
  -13.5134    3.4715   25.6286 C   0  0  0  0  0  0  0  0  0  0  0  0
  -14.0376    2.4405   26.4028 C   0  0  0  0  0  0  0  0  0  0  0  0
  3  4  1  0
  9 10  1  0
  7 14  1  0
  4  8  2  0
  8  9  1  0
  9 13  2  0
 13 12  1  0
 12 11  2  0
 11  4  1  0
  1  2  2  0
  2  5  1  0
  5  6  2  0
  6  7  1  0
  7  3  2  0
  3  1  1  0
 14 15  2  0
 15 16  1  0
 16 19  2  0
 19 18  1  0
 18 17  2  0
 17 14  1  0
M  END
$$$$
