No_7752-complexes_sdf/6BKW-FPZ/2024-09-17-14-21-01/
     RDKit          3D

 40 44  0  0  0  0  0  0  0  0999 V2000
   -7.7129    4.2099   27.0854 C   0  0  0  0  0  0  0  0  0  0  0  0
   -8.2112    3.0637   26.9225 C   0  0  0  0  0  0  0  0  0  0  0  0
   -8.5108    5.3904   26.9436 C   0  0  0  0  0  0  0  0  0  0  0  0
   -9.7256    5.1955   26.3518 C   0  0  0  0  0  0  0  0  0  0  0  0
   -9.4995    2.8258   26.4878 C   0  0  0  0  0  0  0  0  0  0  0  0
  -10.2542    3.9691   26.2055 C   0  0  0  0  0  0  0  0  0  0  0  0
   -7.9135    6.7086   27.1885 C   0  0  0  0  0  0  0  0  0  0  0  0
   -7.3624    1.8198   27.2561 C   0  0  0  0  0  0  0  0  0  0  0  0
   -6.0561    1.9823   27.7522 C   0  0  0  0  0  0  0  0  0  0  0  0
   -5.2895    0.8175   28.0647 C   0  0  0  0  0  0  0  0  0  0  0  0
   -5.8647   -0.4124   27.9067 C   0  0  0  0  0  0  0  0  0  0  0  0
   -7.9432    0.5130   27.1511 C   0  0  0  0  0  0  0  0  0  0  0  0
   -7.1875   -0.5364   27.5238 C   0  0  0  0  0  0  0  0  0  0  0  0
   -3.9019    1.0151   28.5308 C   0  0  0  0  0  0  0  0  0  0  0  0
   -3.3389    0.1797   29.3294 N   0  0  0  0  0  0  0  0  0  0  0  0
   -3.5707    0.1413   30.6599 C   0  0  0  0  0  0  0  0  0  0  0  0
   -2.8682   -0.8188   31.4923 C   0  0  0  0  0  0  0  0  0  0  0  0
   -2.7881   -1.1166   28.9102 C   0  0  1  0  0  0  0  0  0  0  0  0
   -2.4964   -1.1195   27.4541 C   0  0  1  0  0  0  0  0  0  0  0  0
   -2.1246   -1.7865   30.9600 C   0  0  0  0  0  0  0  0  0  0  0  0
   -2.0355   -1.9119   29.6296 C   0  0  0  0  0  0  0  0  0  0  0  0
   -2.0795   -0.0219   26.7163 C   0  0  0  0  0  0  0  0  0  0  0  0
   -1.9251   -2.3089   27.0003 C   0  0  0  0  0  0  0  0  0  0  0  0
   -8.6065    7.9019   26.7100 C   0  0  0  0  0  0  0  0  0  0  0  0
   -2.6933   -2.9290   26.1476 C   0  0  0  0  0  0  0  0  0  0  0  0
   -2.3359   -4.1755   25.5468 C   0  0  0  0  0  0  0  0  0  0  0  0
   -1.1113   -4.6611   25.8541 C   0  0  0  0  0  0  0  0  0  0  0  0
   -0.3122   -4.0150   26.5149 C   0  0  0  0  0  0  0  0  0  0  0  0
   -0.6085   -2.8218   27.1972 C   0  0  0  0  0  0  0  0  0  0  0  0
   -7.7693   -1.8836   27.4267 C   0  0  0  0  0  0  0  0  0  0  0  0
   -7.5198   -2.7767   27.9513 C   0  0  0  0  0  0  0  0  0  0  0  0
   -6.4635   -2.7470   29.0427 C   0  0  0  0  0  0  0  0  0  0  0  0
   -5.5163   -1.5952   28.8371 C   0  0  0  0  0  0  0  0  0  0  0  0
   -5.9615   -3.9152   29.7636 C   0  0  0  0  0  0  0  0  0  0  0  0
   -5.6087   -3.7461   30.8990 O   0  0  0  0  0  0  0  0  0  0  0  0
   -5.9013   -5.0025   29.1734 O   0  0  0  0  0  0  0  0  0  0  0  0
   -6.8094    6.7756   27.8493 O   0  0  0  0  0  0  0  0  0  0  0  0
  -11.5825    3.8002   25.5979 C   0  0  0  0  0  0  0  0  0  0  0  0
  -11.6734    3.3466   24.3451 C   0  0  0  0  0  0  0  0  0  0  0  0
  -12.9597    3.1739   23.7286 C   0  0  0  0  0  0  0  0  0  0  0  0
  3  7  1  0
  2  8  1  0
 10 14  1  0
 14 15  1  0
 15 16  1  0
 15 18  1  0
 18 19  1  0
 17 20  1  0
 18 21  1  1
 19 22  1  1
 19 23  1  0
  7 24  1  0
 32 34  1  0
 34 35  2  0
 34 36  1  0
  7 37  2  0
  6 38  1  0
 38 39  2  3
 39 40  1  0
 16 17  1  0
 20 21  1  0
 13 30  1  0
 30 31  2  0
 31 32  1  0
 32 33  2  0
 33 11  1  0
 23 25  2  0
 25 26  1  0
 26 27  2  0
 27 28  1  0
 28 29  2  0
 29 23  1  0
  1  2  2  0
  2  5  1  0
  5  6  2  0
  6  4  1  0
  4  3  2  0
  3  1  1  0
  8  9  2  0
  9 10  1  0
 10 11  2  0
 11 13  1  0
 13 12  2  0
 12  8  1  0
M  END
$$$$
