No_7956-complexes_sdf/6BKW-FPZ/2024-09-17-14-21-01/
     RDKit          3D

 22 25  0  0  0  0  0  0  0  0999 V2000
   -7.9040    3.9820   27.1177 C   0  0  0  0  0  0  0  0  0  0  0  0
   -7.8663    4.8694   27.9238 C   0  0  0  0  0  0  0  0  0  0  0  0
   -9.0501    3.8017   26.2617 C   0  0  0  0  0  0  0  0  0  0  0  0
  -10.0189    4.7608   26.3707 C   0  0  0  0  0  0  0  0  0  0  0  0
   -8.6770    5.9780   27.9222 C   0  0  0  0  0  0  0  0  0  0  0  0
  -11.1008    4.5790   25.4893 C   0  0  0  0  0  0  0  0  0  0  0  0
   -9.8392    5.8718   27.1106 C   0  0  0  0  0  0  0  0  0  0  0  0
  -12.2594    4.0295   25.8763 C   0  0  0  0  0  0  0  0  0  0  0  0
  -12.5083    3.8594   27.2226 C   0  0  0  0  0  0  0  0  0  0  0  0
  -13.7765    3.4638   27.7304 C   0  0  0  0  0  0  0  0  0  0  0  0
  -13.9309    3.2290   29.1396 C   0  0  0  0  0  0  0  0  0  0  0  0
  -15.0802    3.0200   29.7400 C   0  0  0  0  0  0  0  0  0  0  0  0
  -16.2148    2.9301   28.9008 C   0  0  0  0  0  0  0  0  0  0  0  0
  -16.1453    3.1330   27.5890 C   0  0  0  0  0  0  0  0  0  0  0  0
  -14.9386    3.5056   27.0191 C   0  0  0  0  0  0  0  0  0  0  0  0
  -10.8774    4.7601   24.0324 C   0  0  0  0  0  0  0  0  0  0  0  0
  -11.8119    4.5151   23.0766 C   0  0  0  0  0  0  0  0  0  0  0  0
  -13.2396    3.9895   24.8170 C   0  0  0  0  0  0  0  0  0  0  0  0
  -13.0320    4.1685   23.5529 C   0  0  0  0  0  0  0  0  0  0  0  0
  -14.6834    3.6110   25.3967 C   0  0  0  0  0  0  0  0  0  0  0  0
  -15.8146    3.6183   24.6064 C   0  0  0  0  0  0  0  0  0  0  0  0
  -16.2619    4.5940   24.1650 C   0  0  0  0  0  0  0  0  0  0  0  0
  4  6  1  0
 20 21  1  0
 21 22  1  0
  6  8  1  0
 18 19  1  0
 19 17  2  0
 17 16  1  0
 16  6  2  0
  8  9  2  0
  9 10  1  0
 15 20  1  0
 20 18  2  0
 18  8  1  0
 10 11  2  0
 11 12  1  0
 12 13  2  0
 13 14  1  0
 14 15  2  0
 15 10  1  0
  1  2  2  0
  2  5  1  0
  5  7  2  0
  7  4  1  0
  4  3  2  0
  3  1  1  0
M  END
$$$$
