No_7113-complexes_sdf/6BKW-FPZ/2024-09-17-14-21-01/
     RDKit          3D

 16 17  0  0  0  0  0  0  0  0999 V2000
   -7.9040    3.9820   27.1177 C   0  0  0  0  0  0  0  0  0  0  0  0
   -7.8663    4.8694   27.9238 C   0  0  0  0  0  0  0  0  0  0  0  0
   -9.0501    3.8017   26.2617 C   0  0  0  0  0  0  0  0  0  0  0  0
  -10.0189    4.7608   26.3707 C   0  0  0  0  0  0  0  0  0  0  0  0
   -8.6973    5.9722   27.8968 C   0  0  0  0  0  0  0  0  0  0  0  0
   -9.8216    5.8946   27.1241 C   0  0  0  0  0  0  0  0  0  0  0  0
   -9.1679    2.4430   25.2802 Cl  0  0  0  0  0  0  0  0  0  0  0  0
   -6.9884    2.9150   27.1339 O   0  0  0  0  0  0  0  0  0  0  0  0
   -6.0967    2.8919   28.1008 C   0  0  0  0  0  0  0  0  0  0  0  0
   -5.3636    1.5699   28.0103 C   0  0  0  0  0  0  0  0  0  0  0  0
   -4.1940    1.4410   28.8119 C   0  0  0  0  0  0  0  0  0  0  0  0
   -3.6952    0.1861   28.7877 C   0  0  0  0  0  0  0  0  0  0  0  0
   -4.0452   -0.8384   27.9853 C   0  0  0  0  0  0  0  0  0  0  0  0
   -5.1400   -0.6145   27.1311 C   0  0  0  0  0  0  0  0  0  0  0  0
   -5.7980    0.6018   27.1495 C   0  0  0  0  0  0  0  0  0  0  0  0
   -3.1483   -2.4723   27.9228 Br  0  0  0  0  0  0  0  0  0  0  0  0
  3  7  1  0
  1  8  1  0
  8  9  1  0
 13 16  1  0
  9 10  1  0
  1  2  2  0
  2  5  1  0
  5  6  2  0
  6  4  1  0
  4  3  2  0
  3  1  1  0
 10 11  2  0
 11 12  1  0
 12 13  2  0
 13 14  1  0
 14 15  2  0
 15 10  1  0
M  END
$$$$
