No_7717-complexes_sdf/6BKW-FPZ/2024-09-17-14-21-01/
     RDKit          3D

 19 20  0  0  0  0  0  0  0  0999 V2000
   -7.2496    3.8871   27.4508 C   0  0  0  0  0  0  0  0  0  0  0  0
   -8.5096    4.0291   27.2770 C   0  0  0  0  0  0  0  0  0  0  0  0
   -9.2677    5.1714   27.5773 C   0  0  0  0  0  0  0  0  0  0  0  0
   -9.2765    2.8248   26.8371 C   0  0  0  0  0  0  0  0  0  0  0  0
  -10.4623    3.0171   26.3236 C   0  0  0  0  0  0  0  0  0  0  0  0
  -10.6079    5.2706   27.2578 C   0  0  0  0  0  0  0  0  0  0  0  0
  -11.1606    1.9236   25.7101 C   0  0  2  0  0  0  0  0  0  0  0  0
  -11.2029    4.2382   26.5225 C   0  0  0  0  0  0  0  0  0  0  0  0
   -6.5508    4.9579   27.9310 N   0  0  0  0  0  0  0  0  0  0  0  0
   -6.5740    2.8002   27.3790 O   0  0  0  0  0  0  0  0  0  0  0  0
  -11.8064    1.1017   26.3083 N   0  0  0  0  0  0  0  0  0  0  0  0
  -12.3225    1.3531   27.3929 C   0  0  0  0  0  0  0  0  0  0  0  0
  -12.9220    0.2137   28.2796 C   0  0  0  0  0  0  0  0  0  0  0  0
  -12.4959   -0.1869   25.9749 C   0  0  0  0  0  0  0  0  0  0  0  0
  -13.0293   -0.6819   27.1789 C   0  0  0  0  0  0  0  0  0  0  0  0
  -10.9095    1.7659   24.2513 C   0  0  0  0  0  0  0  0  0  0  0  0
   -9.7156    1.2642   23.8586 C   0  0  0  0  0  0  0  0  0  0  0  0
   -9.4156    1.1211   22.4977 C   0  0  0  0  0  0  0  0  0  0  0  0
  -10.3239    1.6029   21.5735 C   0  0  0  0  0  0  0  0  0  0  0  0
  1  2  1  0
  5  7  1  0
  1  9  1  0
  1 10  2  0
  7 11  1  0
 11 12  1  0
 12 13  2  0
 11 14  1  0
 13 15  1  0
 14 15  2  0
  7 16  1  1
 16 17  1  0
 17 18  2  3
 18 19  1  0
  2  3  2  0
  3  6  1  0
  6  8  2  0
  8  5  1  0
  5  4  2  0
  4  2  1  0
M  END
$$$$
