No_7080-complexes_sdf/6BKW-FPZ/2024-09-17-14-21-01/
     RDKit          3D

 36 41  0  0  0  0  0  0  0  0999 V2000
   -7.2496    3.8871   27.4508 C   0  0  0  0  0  0  0  0  0  0  0  0
   -7.6161    2.7143   27.1523 C   0  0  0  0  0  0  0  0  0  0  0  0
   -8.8302    2.4659   26.5056 C   0  0  0  0  0  0  0  0  0  0  0  0
   -8.1584    5.0090   27.3234 C   0  0  0  0  0  0  0  0  0  0  0  0
   -9.3788    4.7965   26.7695 C   0  0  0  0  0  0  0  0  0  0  0  0
   -9.7028    3.5649   26.3276 C   0  0  0  0  0  0  0  0  0  0  0  0
   -6.5643    1.3669   27.4061 Cl  0  0  0  0  0  0  0  0  0  0  0  0
   -7.5996    6.5746   27.8167 Cl  0  0  0  0  0  0  0  0  0  0  0  0
  -10.9990    3.3539   25.6627 C   0  0  0  0  0  0  0  0  0  0  0  0
  -11.2536    2.5740   24.9516 C   0  0  0  0  0  0  0  0  0  0  0  0
  -12.5425    2.4222   24.2021 C   0  0  0  0  0  0  0  0  0  0  0  0
  -13.4755    3.4236   24.4454 C   0  0  0  0  0  0  0  0  0  0  0  0
  -13.1932    4.4502   25.3434 C   0  0  0  0  0  0  0  0  0  0  0  0
  -11.9521    4.4993   26.0116 C   0  0  0  0  0  0  0  0  0  0  0  0
  -12.8396    1.3970   23.2456 C   0  0  0  0  0  0  0  0  0  0  0  0
  -12.6869    0.2573   23.4034 N   0  0  0  0  0  0  0  0  0  0  0  0
  -12.6778   -0.7068   22.5326 C   0  0  1  0  0  0  0  0  0  0  0  0
  -13.1869    1.8228   22.0707 O   0  0  0  0  0  0  0  0  0  0  0  0
  -11.5327   -1.0047   21.8642 C   0  0  0  0  0  0  0  0  0  0  0  0
  -10.3646   -0.7904   22.5034 C   0  0  0  0  0  0  0  0  0  0  0  0
  -10.1398   -1.3808   23.6738 C   0  0  0  0  0  0  0  0  0  0  0  0
   -8.7516   -1.3234   24.1847 C   0  0  0  0  0  0  0  0  0  0  0  0
   -7.7719   -0.6203   23.5191 C   0  0  0  0  0  0  0  0  0  0  0  0
   -7.9997   -0.0496   22.2992 C   0  0  0  0  0  0  0  0  0  0  0  0
   -9.2620   -0.1576   21.7693 C   0  0  0  0  0  0  0  0  0  0  0  0
  -13.1146   -2.0418   23.2298 C   0  0  0  0  0  0  0  0  0  0  0  0
  -13.8260   -1.9428   24.3170 C   0  0  0  0  0  0  0  0  0  0  0  0
  -13.2182   -0.2916   24.7969 C   0  0  0  0  0  0  0  0  0  0  0  0
  -13.3319    0.1722   25.8582 O   0  0  0  0  0  0  0  0  0  0  0  0
  -11.5723   -1.2175   20.4241 C   0  0  0  0  0  0  0  0  0  0  0  0
  -12.3335   -1.9342   19.9430 C   0  0  0  0  0  0  0  0  0  0  0  0
  -12.3513   -2.2138   18.4953 C   0  0  0  0  0  0  0  0  0  0  0  0
  -11.3886   -1.5721   17.7249 C   0  0  0  0  0  0  0  0  0  0  0  0
  -10.4394   -0.7844   18.3030 C   0  0  0  0  0  0  0  0  0  0  0  0
  -10.4990   -0.5554   19.6420 C   0  0  0  0  0  0  0  0  0  0  0  0
   -9.3629   -0.0584   20.3303 N   0  0  0  0  0  0  0  0  0  0  0  0
  2  7  1  0
  4  8  1  0
  6  9  1  0
 11 15  1  0
 15 16  1  0
 16 17  1  0
 15 18  2  0
 17 19  1  1
 17 26  1  0
 26 27  2  0
 16 28  1  0
 27 28  1  0
 28 29  2  0
  1  2  2  0
  2  3  1  0
  3  6  2  0
  6  5  1  0
  5  4  2  0
  4  1  1  0
 30 31  1  0
 31 32  2  0
 32 33  1  0
 33 34  2  0
 34 35  1  0
  9 10  2  0
 10 11  1  0
 11 12  2  0
 12 13  1  0
 13 14  2  0
 14  9  1  0
 20 21  2  0
 21 22  1  0
 22 23  2  0
 23 24  1  0
 24 25  2  0
 19 20  1  0
 20 25  1  0
 25 36  1  0
 36 35  2  0
 35 30  1  0
 30 19  2  0
M  END
$$$$
