No_7170-complexes_sdf/6BKW-FPZ/2024-09-17-14-21-01/
     RDKit          3D

 14 15  0  0  0  0  0  0  0  0999 V2000
   -7.9040    3.9820   27.1177 C   0  0  0  0  0  0  0  0  0  0  0  0
   -8.2057    2.8231   26.8733 C   0  0  0  0  0  0  0  0  0  0  0  0
   -8.7463    4.9537   27.6708 C   0  0  0  0  0  0  0  0  0  0  0  0
  -10.0901    4.5164   28.0293 C   0  0  0  0  0  0  0  0  0  0  0  0
   -9.5729    2.3483   27.2382 C   0  0  0  0  0  0  0  0  0  0  0  0
  -10.4170    3.2421   27.8237 C   0  0  0  0  0  0  0  0  0  0  0  0
   -8.2246    6.5619   27.9330 Cl  0  0  0  0  0  0  0  0  0  0  0  0
   -9.8648    0.9217   27.0100 C   0  0  0  0  0  0  0  0  0  0  0  0
   -8.9215    0.0759   26.9345 C   0  0  0  0  0  0  0  0  0  0  0  0
   -7.5782    0.5321   26.6335 C   0  0  0  0  0  0  0  0  0  0  0  0
   -7.2429    1.8624   26.7171 C   0  0  0  0  0  0  0  0  0  0  0  0
  -11.7986    2.8390   28.2469 C   0  0  0  0  0  0  0  0  0  0  0  0
  -12.0696    2.1154   28.9539 C   0  0  0  0  0  0  0  0  0  0  0  0
  -13.3961    1.7519   29.5028 C   0  0  0  0  0  0  0  0  0  0  0  0
  3  7  1  0
  6 12  1  0
 12 13  2  3
 13 14  1  0
  5  8  1  0
  8  9  2  0
  9 10  1  0
 10 11  2  0
 11  2  1  0
  1  2  2  0
  2  5  1  0
  5  6  2  0
  6  4  1  0
  4  3  2  0
  3  1  1  0
M  END
$$$$
