No_7445-complexes_sdf/6BKW-FPZ/2024-09-17-14-21-01/
     RDKit          3D

 19 20  0  0  0  0  0  0  0  0999 V2000
   -7.7129    4.2099   27.0854 C   0  0  0  0  0  0  0  0  0  0  0  0
   -7.7814    5.1722   27.8972 C   0  0  0  0  0  0  0  0  0  0  0  0
   -8.7889    3.2468   27.2220 C   0  0  2  0  0  0  0  0  0  0  0  0
   -9.8927    3.4443   27.8449 C   0  0  0  0  0  0  0  0  0  0  0  0
  -10.8580    4.0567   27.3000 C   0  0  0  0  0  0  0  0  0  0  0  0
   -8.3058    6.3590   27.5778 C   0  0  0  0  0  0  0  0  0  0  0  0
   -8.5658    1.8693   26.6707 C   0  0  0  0  0  0  0  0  0  0  0  0
   -7.5888    1.0495   27.1801 C   0  0  0  0  0  0  0  0  0  0  0  0
   -7.4259   -0.2610   26.7495 C   0  0  0  0  0  0  0  0  0  0  0  0
   -8.3191   -0.6850   25.7699 C   0  0  0  0  0  0  0  0  0  0  0  0
   -9.2912    1.2118   25.6815 C   0  0  0  0  0  0  0  0  0  0  0  0
   -9.1965    0.0805   25.2239 C   0  0  0  0  0  0  0  0  0  0  0  0
   -8.8666    6.7771   26.4698 C   0  0  0  0  0  0  0  0  0  0  0  0
  -12.1683    4.2241   28.0413 C   0  0  0  0  0  0  0  0  0  0  0  0
  -12.4939    3.3441   29.0482 C   0  0  0  0  0  0  0  0  0  0  0  0
  -13.6403    3.5262   29.7777 C   0  0  0  0  0  0  0  0  0  0  0  0
  -14.5497    4.5317   29.3862 C   0  0  0  0  0  0  0  0  0  0  0  0
  -14.2881    5.3399   28.2797 C   0  0  0  0  0  0  0  0  0  0  0  0
  -13.1281    5.2007   27.5821 C   0  0  0  0  0  0  0  0  0  0  0  0
  1  2  1  0
  3  1  1  1
  3  4  1  0
  4  5  2  3
  2  6  1  0
  3  7  1  0
  6 13  1  0
  5 14  1  0
  7  8  2  0
  8  9  1  0
  9 10  2  0
 10 12  1  0
 12 11  2  0
 11  7  1  0
 14 15  2  0
 15 16  1  0
 16 17  2  0
 17 18  1  0
 18 19  2  0
 19 14  1  0
M  END
$$$$
