No_7812-complexes_sdf/6BKW-FPZ/2024-09-17-14-21-01/
     RDKit          3D

 21 25  0  0  0  0  0  0  0  0999 V2000
   -7.9040    3.9820   27.1177 C   0  0  0  0  0  0  0  0  0  0  0  0
   -7.8663    4.8694   27.9238 C   0  0  0  0  0  0  0  0  0  0  0  0
   -7.4547    2.7080   27.4594 C   0  0  0  0  0  0  0  0  0  0  0  0
   -7.9337    1.5946   26.8372 C   0  0  0  0  0  0  0  0  0  0  0  0
   -7.4947    0.3059   27.1189 C   0  0  0  0  0  0  0  0  0  0  0  0
   -8.6696    6.0289   27.7710 C   0  0  0  0  0  0  0  0  0  0  0  0
   -9.1200    1.7597   26.0575 C   0  0  0  0  0  0  0  0  0  0  0  0
   -9.4646    0.6563   25.3323 C   0  0  0  0  0  0  0  0  0  0  0  0
   -8.0156   -0.7698   26.5415 C   0  0  0  0  0  0  0  0  0  0  0  0
   -9.0498   -0.6026   25.6050 C   0  0  0  0  0  0  0  0  0  0  0  0
   -9.3316    6.2489   26.4957 C   0  0  0  0  0  0  0  0  0  0  0  0
   -8.9065    4.2427   26.0715 C   0  0  0  0  0  0  0  0  0  0  0  0
   -9.4434    5.3768   25.8081 C   0  0  0  0  0  0  0  0  0  0  0  0
   -9.4162    3.0023   25.4519 N   0  0  0  0  0  0  0  0  0  0  0  0
  -10.3988    3.0762   24.4699 C   0  0  0  0  0  0  0  0  0  0  0  0
  -10.4111    2.4712   23.4491 C   0  0  0  0  0  0  0  0  0  0  0  0
  -11.1625    2.6122   22.3106 C   0  0  0  0  0  0  0  0  0  0  0  0
   -9.8225    0.9952   23.6564 C   0  0  0  0  0  0  0  0  0  0  0  0
  -11.6693    3.7419   22.0718 C   0  0  0  0  0  0  0  0  0  0  0  0
  -11.7323    4.7361   23.1907 C   0  0  0  0  0  0  0  0  0  0  0  0
  -11.0276    4.4646   24.2941 C   0  0  0  0  0  0  0  0  0  0  0  0
  3  4  1  0
  7 14  1  0
 12 14  1  0
 14 15  1  0
  8 18  1  0
 16 18  1  0
  3  1  1  0
 15 21  2  0
 21 20  1  0
 20 19  2  0
 19 17  1  0
 17 16  2  0
 16 15  1  0
  4  5  2  0
  5  9  1  0
  9 10  2  0
 10  8  1  0
  8  7  2  0
  7  4  1  0
  1  2  2  0
  2  6  1  0
  6 11  2  0
 11 13  1  0
 13 12  2  0
 12  1  1  0
M  END
$$$$
