No_7906-complexes_sdf/6BKW-FPZ/2024-09-17-14-21-01/
     RDKit          3D

 20 22  0  0  0  0  0  0  0  0999 V2000
   -7.9040    3.9820   27.1177 C   0  0  0  0  0  0  0  0  0  0  0  0
   -8.2057    2.8231   26.8733 C   0  0  0  0  0  0  0  0  0  0  0  0
   -7.0130    4.3706   28.1140 C   0  0  0  0  0  0  0  0  0  0  0  0
   -9.3829    2.4374   26.1668 C   0  0  0  0  0  0  0  0  0  0  0  0
  -10.0975    3.4171   25.5988 C   0  0  0  0  0  0  0  0  0  0  0  0
   -9.6923    4.6023   25.6795 C   0  0  0  0  0  0  0  0  0  0  0  0
   -8.7104    5.0858   26.5299 C   0  0  0  0  0  0  0  0  0  0  0  0
   -8.4044    6.4534   26.8005 C   0  0  0  0  0  0  0  0  0  0  0  0
   -9.2302    7.5364   26.4906 C   0  0  0  0  0  0  0  0  0  0  0  0
   -7.2541    6.6570   27.7391 C   0  0  0  0  0  0  0  0  0  0  0  0
   -6.7495    5.7064   28.3422 N   0  0  0  0  0  0  0  0  0  0  0  0
   -9.6800    0.9774   25.9107 C   0  0  0  0  0  0  0  0  0  0  0  0
   -9.9162    0.1726   26.8533 C   0  0  0  0  0  0  0  0  0  0  0  0
   -9.9909   -1.1531   26.8710 C   0  0  0  0  0  0  0  0  0  0  0  0
   -9.8711   -1.7172   25.6230 C   0  0  0  0  0  0  0  0  0  0  0  0
   -9.3448    0.3462   24.6714 C   0  0  0  0  0  0  0  0  0  0  0  0
   -9.4596   -0.9841   24.5217 C   0  0  0  0  0  0  0  0  0  0  0  0
  -11.1831    3.0785   24.6204 C   0  0  0  0  0  0  0  0  0  0  0  0
  -11.1652    3.4447   23.4178 C   0  0  0  0  0  0  0  0  0  0  0  0
  -12.2185    3.1945   22.5048 C   0  0  0  0  0  0  0  0  0  0  0  0
  8  9  1  0
  4 12  1  0
  5 18  1  0
 18 19  2  3
 19 20  1  0
 12 13  2  0
 13 14  1  0
 14 15  2  0
 15 17  1  0
 17 16  2  0
 16 12  1  0
  1  3  1  0
  3 11  2  0
 11 10  1  0
 10  8  2  0
  8  7  1  0
  1  2  2  0
  2  4  1  0
  4  5  2  0
  5  6  1  0
  6  7  2  0
  7  1  1  0
M  END
$$$$
