No_7823-complexes_sdf/6BKW-FPZ/2024-09-17-14-21-01/
     RDKit          3D

 23 24  0  0  0  0  0  0  0  0999 V2000
   -7.7129    4.2099   27.0854 C   0  0  0  0  0  0  0  0  0  0  0  0
   -7.7814    5.1722   27.8972 C   0  0  0  0  0  0  0  0  0  0  0  0
   -8.8255    3.2789   27.1191 C   0  0  0  0  0  0  0  0  0  0  0  0
   -8.7530    2.0643   26.3119 C   0  0  0  0  0  0  0  0  0  0  0  0
   -9.8958    1.4956   25.8527 C   0  0  0  0  0  0  0  0  0  0  0  0
   -9.7349    0.3805   25.0766 C   0  0  0  0  0  0  0  0  0  0  0  0
   -8.4940   -0.0965   24.7665 C   0  0  0  0  0  0  0  0  0  0  0  0
   -7.3619    0.4772   25.2627 C   0  0  0  0  0  0  0  0  0  0  0  0
   -7.4207    1.5650   26.1119 C   0  0  0  0  0  0  0  0  0  0  0  0
   -9.9207    3.6319   27.9236 C   0  0  0  0  0  0  0  0  0  0  0  0
  -10.0091    4.8417   28.6621 C   0  0  0  0  0  0  0  0  0  0  0  0
   -8.8969    5.6750   28.6402 C   0  0  0  0  0  0  0  0  0  0  0  0
  -11.0073    2.8445   27.9529 F   0  0  0  0  0  0  0  0  0  0  0  0
  -10.9472   -0.2191   24.4240 C   0  0  0  0  0  0  0  0  0  0  0  0
  -11.8664   -0.4821   24.7809 O   0  0  0  0  0  0  0  0  0  0  0  0
  -10.9769   -0.0828   23.0213 O   0  0  0  0  0  0  0  0  0  0  0  0
  -11.7713   -0.6824   22.2304 C   0  0  0  0  0  0  0  0  0  0  0  0
  -12.5235   -0.0009   21.3671 C   0  0  0  0  0  0  0  0  0  0  0  0
  -12.3580    1.3543   21.2284 C   0  0  0  0  0  0  0  0  0  0  0  0
  -11.4542    2.0034   22.0288 C   0  0  0  0  0  0  0  0  0  0  0  0
  -11.2293    3.4837   22.0358 C   0  0  0  0  0  0  0  0  0  0  0  0
  -10.6959    4.1827   22.8843 C   0  0  0  0  0  0  0  0  0  0  0  0
  -10.6546    5.6234   22.9502 C   0  0  0  0  0  0  0  0  0  0  0  0
  3  4  1  0
 10 13  1  0
  6 14  1  0
 14 15  2  0
 14 16  1  0
 16 17  1  0
 17 18  2  3
 18 19  1  0
 19 20  2  3
 20 21  1  0
 21 22  2  3
 22 23  1  0
  1  2  2  0
  2 12  1  0
 12 11  2  0
 11 10  1  0
 10  3  2  0
  3  1  1  0
  4  5  2  0
  5  6  1  0
  6  7  2  0
  7  8  1  0
  8  9  2  0
  9  4  1  0
M  END
$$$$
