No_709-complexes_sdf/6BKW-FPZ/2024-09-17-14-21-01/
     RDKit          3D

 18 20  0  0  0  0  0  0  0  0999 V2000
   -7.9040    3.9820   27.1177 C   0  0  0  0  0  0  0  0  0  0  0  0
   -8.2057    2.8231   26.8733 C   0  0  0  0  0  0  0  0  0  0  0  0
   -7.4766    1.7477   27.4593 C   0  0  0  0  0  0  0  0  0  0  0  0
   -6.7221    4.3631   27.8544 C   0  0  0  0  0  0  0  0  0  0  0  0
   -6.1698    2.0708   27.9540 C   0  0  0  0  0  0  0  0  0  0  0  0
   -5.2664    1.0481   28.4148 C   0  0  0  0  0  0  0  0  0  0  0  0
   -5.8314    3.4519   28.2237 C   0  0  0  0  0  0  0  0  0  0  0  0
   -5.6118   -0.3193   28.3636 C   0  0  0  0  0  0  0  0  0  0  0  0
   -4.7651   -1.2789   28.8191 C   0  0  0  0  0  0  0  0  0  0  0  0
   -5.1658   -2.6419   28.8816 C   0  0  0  0  0  0  0  0  0  0  0  0
   -6.4307   -2.9311   28.3898 C   0  0  0  0  0  0  0  0  0  0  0  0
   -7.2840   -1.9764   27.8986 C   0  0  0  0  0  0  0  0  0  0  0  0
   -6.9171   -0.6983   27.9491 C   0  0  0  0  0  0  0  0  0  0  0  0
   -7.7901    0.3567   27.3398 C   0  0  0  0  0  0  0  0  0  0  0  0
   -8.7814    5.1337   26.6238 C   0  0  0  0  0  0  0  0  0  0  0  0
   -9.5661    4.9417   25.5434 N   0  0  0  0  0  0  0  0  0  0  0  0
   -8.4708    6.4010   26.8998 O   0  0  0  0  0  0  0  0  0  0  0  0
   -8.8909    0.0931   26.8122 O   0  0  0  0  0  0  0  0  0  0  0  0
  5  6  1  0
  3 14  1  0
 13 14  1  0
  1 15  1  0
 15 16  1  0
 15 17  2  0
 14 18  2  0
  6  8  1  0
  8  9  2  0
  9 10  1  0
 10 11  2  0
 11 12  1  0
 12 13  2  0
 13  8  1  0
  1  2  2  0
  2  3  1  0
  3  5  2  0
  5  7  1  0
  7  4  2  0
  4  1  1  0
M  END
$$$$
