No_7606-complexes_sdf/6BKW-FPZ/2024-09-17-14-21-01/
     RDKit          3D

 28 32  0  0  0  0  0  0  0  0999 V2000
   -7.7129    4.2099   27.0854 C   0  0  0  0  0  0  0  0  0  0  0  0
   -7.7814    5.1722   27.8972 C   0  0  0  0  0  0  0  0  0  0  0  0
   -8.7889    3.2468   27.2220 C   0  0  2  0  0  0  0  0  0  0  0  0
   -8.5940    1.9755   26.6525 C   0  0  0  0  0  0  0  0  0  0  0  0
   -7.5537    1.2112   27.0910 C   0  0  0  0  0  0  0  0  0  0  0  0
   -8.6099    6.3007   27.4960 C   0  0  0  0  0  0  0  0  0  0  0  0
   -7.2926   -0.0816   26.6719 C   0  0  0  0  0  0  0  0  0  0  0  0
   -9.9960    5.8046   27.3395 C   0  0  0  0  0  0  0  0  0  0  0  0
  -10.1241    3.9178   27.3552 C   0  0  2  0  0  0  0  0  0  0  0  0
   -8.2172   -0.5915   25.7916 C   0  0  0  0  0  0  0  0  0  0  0  0
   -9.5171    1.3174   25.8380 C   0  0  0  0  0  0  0  0  0  0  0  0
   -9.3067    0.0922   25.3383 C   0  0  0  0  0  0  0  0  0  0  0  0
  -10.6486    3.6894   28.8210 C   0  0  0  0  0  0  0  0  0  0  0  0
  -12.0437    3.1813   28.7232 C   0  0  0  0  0  0  0  0  0  0  0  0
  -12.6553    2.8754   29.8539 C   0  0  0  0  0  0  0  0  0  0  0  0
  -13.9984    2.3960   29.9111 C   0  0  0  0  0  0  0  0  0  0  0  0
  -14.6125    2.2021   28.6488 C   0  0  0  0  0  0  0  0  0  0  0  0
  -13.9466    2.4482   27.4913 C   0  0  0  0  0  0  0  0  0  0  0  0
  -12.6718    2.9560   27.5290 C   0  0  0  0  0  0  0  0  0  0  0  0
  -11.0332    3.7752   26.2156 C   0  0  0  0  0  0  0  0  0  0  0  0
  -12.1440    3.2678   26.3530 N   0  0  0  0  0  0  0  0  0  0  0  0
  -12.9700    3.0519   25.1588 C   0  0  0  0  0  0  0  0  0  0  0  0
  -10.4015    3.9370   25.0708 O   0  0  0  0  0  0  0  0  0  0  0  0
  -13.2200    3.8980   24.6314 C   0  0  0  0  0  0  0  0  0  0  0  0
  -13.9894    3.9738   23.3512 C   0  0  0  0  0  0  0  0  0  0  0  0
  -14.3657    2.7875   22.8606 C   0  0  0  0  0  0  0  0  0  0  0  0
  -13.9817    1.6390   23.5915 C   0  0  0  0  0  0  0  0  0  0  0  0
  -13.2912    1.7705   24.7746 C   0  0  0  0  0  0  0  0  0  0  0  0
  1  2  1  0
  1  3  1  0
  3  4  1  6
  2  6  1  0
  6  8  1  0
  3  9  1  0
  9  8  1  1
  9 13  1  0
 13 14  1  0
  9 20  1  0
 19 21  1  0
 20 21  1  0
 21 22  1  0
 20 23  2  0
  4  5  2  0
  5  7  1  0
  7 10  2  0
 10 12  1  0
 12 11  2  0
 11  4  1  0
 22 24  2  0
 24 25  1  0
 25 26  2  0
 26 27  1  0
 27 28  2  0
 28 22  1  0
 14 15  2  0
 15 16  1  0
 16 17  2  0
 17 18  1  0
 18 19  2  0
 19 14  1  0
M  END
$$$$
