No_8742-complexes_sdf/6BKW-FPZ/2024-09-17-14-21-01/
     RDKit          3D

 22 24  0  0  0  0  0  0  0  0999 V2000
   -7.9040    3.9820   27.1177 C   0  0  0  0  0  0  0  0  0  0  0  0
   -9.0711    4.3164   27.0630 C   0  0  0  0  0  0  0  0  0  0  0  0
   -9.5294    5.4517   27.7215 C   0  0  0  0  0  0  0  0  0  0  0  0
   -6.9328    4.7309   27.8881 C   0  0  0  0  0  0  0  0  0  0  0  0
   -7.3666    5.8455   28.5488 C   0  0  0  0  0  0  0  0  0  0  0  0
   -8.6669    6.2428   28.4199 C   0  0  0  0  0  0  0  0  0  0  0  0
  -10.0479    3.5083   26.2510 C   0  0  0  0  0  0  0  0  0  0  0  0
   -9.7487    3.3856   24.9113 C   0  0  0  0  0  0  0  0  0  0  0  0
  -10.5142    2.6814   23.9902 C   0  0  0  0  0  0  0  0  0  0  0  0
  -10.0863    2.5889   22.6429 C   0  0  0  0  0  0  0  0  0  0  0  0
  -10.4424    1.6483   21.8332 C   0  0  0  0  0  0  0  0  0  0  0  0
  -11.4987    0.7799   22.1932 C   0  0  0  0  0  0  0  0  0  0  0  0
  -11.9847    0.8854   23.4596 C   0  0  0  0  0  0  0  0  0  0  0  0
  -11.4397    1.7350   24.4005 C   0  0  0  0  0  0  0  0  0  0  0  0
  -11.1828    3.0112   26.7998 C   0  0  0  0  0  0  0  0  0  0  0  0
  -11.3657    2.7285   27.9432 C   0  0  0  0  0  0  0  0  0  0  0  0
  -12.5800    2.1448   28.5533 C   0  0  0  0  0  0  0  0  0  0  0  0
  -13.5080    1.8392   27.6067 C   0  0  0  0  0  0  0  0  0  0  0  0
  -13.3879    2.1386   26.3282 C   0  0  0  0  0  0  0  0  0  0  0  0
  -12.2502    2.7797   25.8596 C   0  0  0  0  0  0  0  0  0  0  0  0
  -10.6046    0.7110   25.4457 C   0  0  0  0  0  0  0  0  0  0  0  0
  -12.6542    3.9965   24.9715 C   0  0  0  0  0  0  0  0  0  0  0  0
  2  7  1  0
  7  8  2  3
  8  9  1  0
  7 15  1  0
 14 21  1  0
 20 22  1  0
 15 16  2  0
 16 17  1  0
 17 18  2  0
 18 19  1  0
 19 20  2  0
 20 15  1  0
  1  2  2  0
  2  3  1  0
  3  6  2  0
  6  5  1  0
  5  4  2  0
  4  1  1  0
  9 10  2  0
 10 11  1  0
 11 12  2  0
 12 13  1  0
 13 14  2  0
 14  9  1  0
M  END
$$$$
