No_8023-complexes_sdf/6BKW-FPZ/2024-09-17-14-21-01/
     RDKit          3D

 19 20  0  0  0  0  0  0  0  0999 V2000
   -7.7129    4.2099   27.0854 C   0  0  0  0  0  0  0  0  0  0  0  0
   -8.2112    3.0637   26.9225 C   0  0  0  0  0  0  0  0  0  0  0  0
   -7.5138    1.9223   27.4249 C   0  0  0  0  0  0  0  0  0  0  0  0
   -8.5309    5.4147   26.8151 C   0  0  0  0  0  0  0  0  0  0  0  0
   -9.6817    5.2393   26.1100 C   0  0  0  0  0  0  0  0  0  0  0  0
  -10.1032    3.9957   25.8534 C   0  0  0  0  0  0  0  0  0  0  0  0
   -9.4035    2.8430   26.2573 C   0  0  0  0  0  0  0  0  0  0  0  0
   -6.1405    1.9750   27.8101 C   0  0  0  0  0  0  0  0  0  0  0  0
   -5.4236    0.8182   28.2098 C   0  0  0  0  0  0  0  0  0  0  0  0
   -6.0618   -0.3957   28.1359 C   0  0  0  0  0  0  0  0  0  0  0  0
   -8.0095    0.5825   27.3561 C   0  0  0  0  0  0  0  0  0  0  0  0
   -7.3655   -0.4806   27.7750 C   0  0  0  0  0  0  0  0  0  0  0  0
   -7.9708    6.7600   27.1019 C   0  0  0  0  0  0  0  0  0  0  0  0
   -3.7789    1.0385   28.7194 Cl  0  0  0  0  0  0  0  0  0  0  0  0
   -8.6570    7.8568   26.7544 N   0  0  0  0  0  0  0  0  0  0  0  0
   -6.8945    6.8571   27.7764 O   0  0  0  0  0  0  0  0  0  0  0  0
  -11.3571    3.8229   25.0741 C   0  0  0  0  0  0  0  0  0  0  0  0
  -11.4782    4.3755   23.9795 C   0  0  0  0  0  0  0  0  0  0  0  0
  -12.6034    4.2160   23.0675 C   0  0  0  0  0  0  0  0  0  0  0  0
  2  3  1  0
  4 13  1  0
  9 14  1  0
 13 15  2  0
 13 16  1  0
  6 17  1  0
 17 18  2  3
 18 19  1  0
  3  8  2  0
  8  9  1  0
  9 10  2  0
 10 12  1  0
 12 11  2  0
 11  3  1  0
  1  2  2  0
  2  7  1  0
  7  6  2  0
  6  5  1  0
  5  4  2  0
  4  1  1  0
M  END
$$$$
