No_8071-complexes_sdf/6BKW-FPZ/2024-09-17-14-21-01/
     RDKit          3D

 35 39  0  0  0  0  0  0  0  0999 V2000
   -7.9040    3.9820   27.1177 C   0  0  0  0  0  0  0  0  0  0  0  0
   -7.8663    4.8694   27.9238 C   0  0  0  0  0  0  0  0  0  0  0  0
   -9.0491    3.8523   26.2542 C   0  0  0  0  0  0  0  0  0  0  0  0
   -9.9827    3.2456   26.6451 C   0  0  1  0  0  0  0  0  0  0  0  0
  -10.7367    3.8670   27.7658 C   0  0  0  0  0  0  0  0  0  0  0  0
   -8.9700    5.2194   28.8729 C   0  0  0  0  0  0  0  0  0  0  0  0
  -10.3036    4.7969   28.5455 C   0  0  0  0  0  0  0  0  0  0  0  0
  -10.9377    2.7877   25.4987 C   0  0  1  0  0  0  0  0  0  0  0  0
  -10.4868    2.1414   24.5319 C   0  0  2  0  0  0  0  0  0  0  0  0
   -9.6346    1.1484   24.6675 C   0  0  1  0  0  0  0  0  0  0  0  0
   -9.1881    0.7597   25.7851 C   0  0  0  0  0  0  0  0  0  0  0  0
   -8.0270   -0.1122   25.9344 C   0  0  0  0  0  0  0  0  0  0  0  0
   -7.4573   -0.3883   27.2308 C   0  0  0  0  0  0  0  0  0  0  0  0
   -6.1418   -0.7299   27.3814 C   0  0  0  0  0  0  0  0  0  0  0  0
   -5.4516   -1.1144   26.3287 C   0  0  0  0  0  0  0  0  0  0  0  0
   -5.9540   -0.9111   25.0439 C   0  0  0  0  0  0  0  0  0  0  0  0
   -7.1698   -0.3155   24.8735 C   0  0  0  0  0  0  0  0  0  0  0  0
  -12.1113    3.3925   27.9382 C   0  0  2  0  0  0  0  0  0  0  0  0
  -12.7422    3.7716   29.1303 C   0  0  0  0  0  0  0  0  0  0  0  0
  -12.7421    2.4732   27.1224 C   0  0  0  0  0  0  0  0  0  0  0  0
  -12.3900    2.7283   25.7638 C   0  0  0  0  0  0  0  0  0  0  0  0
  -10.7815    2.7139   23.2280 C   0  0  0  0  0  0  0  0  0  0  0  0
  -11.5508    2.4674   22.5183 C   0  0  0  0  0  0  0  0  0  0  0  0
  -12.4262    1.3342   22.7151 C   0  0  0  0  0  0  0  0  0  0  0  0
  -13.4745    1.0664   21.8188 C   0  0  0  0  0  0  0  0  0  0  0  0
  -11.8182    3.0892   21.1888 C   0  0  0  0  0  0  0  0  0  0  0  0
  -13.5262    1.6844   20.6485 C   0  0  0  0  0  0  0  0  0  0  0  0
  -12.7389    2.7242   20.2763 C   0  0  0  0  0  0  0  0  0  0  0  0
   -6.7317    5.4637   28.3721 O   0  0  0  0  0  0  0  0  0  0  0  0
  -10.0179   -0.0631   23.6883 C   0  0  0  0  0  0  0  0  0  0  0  0
  -10.2777   -1.2554   24.2910 C   0  0  0  0  0  0  0  0  0  0  0  0
  -10.6281   -2.3282   23.4367 C   0  0  0  0  0  0  0  0  0  0  0  0
  -10.7112   -2.0547   22.0884 C   0  0  0  0  0  0  0  0  0  0  0  0
  -10.3658   -0.8276   21.5083 C   0  0  0  0  0  0  0  0  0  0  0  0
   -9.9608    0.1915   22.3676 C   0  0  0  0  0  0  0  0  0  0  0  0
  1  2  1  0
  1  3  1  0
  4  3  1  6
  4  5  1  0
  2  6  1  0
  5  7  2  0
  6  7  1  0
  4  8  1  0
  8  9  1  0
  9 10  1  0
 10 11  1  1
  5 18  1  0
 18 19  1  1
 18 20  1  0
  8 21  1  1
 20 21  1  0
  9 22  1  6
  2 29  2  0
 10 30  1  0
 11 12  1  0
 22 23  1  0
 12 13  2  0
 13 14  1  0
 14 15  2  0
 15 16  1  0
 16 17  2  0
 17 12  1  0
 23 24  2  0
 24 25  1  0
 25 27  2  0
 27 28  1  0
 28 26  2  0
 26 23  1  0
 30 31  2  0
 31 32  1  0
 32 33  2  0
 33 34  1  0
 34 35  2  0
 35 30  1  0
M  END
$$$$
