No_870-complexes_sdf/6BKW-FPZ/2024-09-17-14-21-01/
     RDKit          3D

 22 24  0  0  0  0  0  0  0  0999 V2000
   -7.9040    3.9820   27.1177 C   0  0  0  0  0  0  0  0  0  0  0  0
   -9.0711    4.3164   27.0630 C   0  0  0  0  0  0  0  0  0  0  0  0
  -10.0395    3.8218   27.1938 C   0  0  0  0  0  0  0  0  0  0  0  0
   -7.6424    2.5858   27.3610 C   0  0  0  0  0  0  0  0  0  0  0  0
   -8.7741    1.7889   27.4566 C   0  0  0  0  0  0  0  0  0  0  0  0
  -10.0155    2.3581   27.4300 C   0  0  0  0  0  0  0  0  0  0  0  0
   -9.3581    5.9044   26.9446 C   0  0  0  0  0  0  0  0  0  0  0  0
   -8.5490    6.6634   26.0288 C   0  0  0  0  0  0  0  0  0  0  0  0
   -6.3135    1.9908   27.3367 C   0  0  0  0  0  0  0  0  0  0  0  0
   -5.8510    1.1874   28.1557 C   0  0  0  0  0  0  0  0  0  0  0  0
   -4.4247    0.7658   28.0818 C   0  0  0  0  0  0  0  0  0  0  0  0
   -3.9158   -0.1698   28.9939 C   0  0  0  0  0  0  0  0  0  0  0  0
   -4.7048   -0.7056   29.9721 C   0  0  0  0  0  0  0  0  0  0  0  0
   -6.0673   -0.5964   29.7868 C   0  0  0  0  0  0  0  0  0  0  0  0
   -6.5501    0.2769   28.9987 C   0  0  0  0  0  0  0  0  0  0  0  0
   -4.0571   -1.6842   30.9252 C   0  0  0  0  0  0  0  0  0  0  0  0
   -3.8918   -1.1337   32.1756 C   0  0  0  0  0  0  0  0  0  0  0  0
   -4.2738   -0.2679   32.7093 C   0  0  0  0  0  0  0  0  0  0  0  0
   -5.3599    0.3067   32.0751 C   0  0  0  0  0  0  0  0  0  0  0  0
   -6.1798   -0.3228   31.1833 C   0  0  0  0  0  0  0  0  0  0  0  0
   -3.4585    1.2869   27.3143 O   0  0  0  0  0  0  0  0  0  0  0  0
   -2.4765    0.5792   26.8014 C   0  0  0  0  0  0  0  0  0  0  0  0
  2  7  1  0
  7  8  2  0
  4  9  1  0
 13 16  1  0
 16 17  1  0
 17 18  2  0
 18 19  1  0
 14 20  1  0
 19 20  1  0
 11 21  1  0
 21 22  1  0
  9 10  1  0
  1  2  2  0
  2  3  1  0
  3  6  2  0
  6  5  1  0
  5  4  2  0
  4  1  1  0
 10 11  2  0
 11 12  1  0
 12 13  2  0
 13 14  1  0
 14 15  2  0
 15 10  1  0
M  END
$$$$
