No_8889-complexes_sdf/6BKW-FPZ/2024-09-17-14-21-01/
     RDKit          3D

 12 13  0  0  0  0  0  0  0  0999 V2000
   -7.9040    3.9820   27.1177 C   0  0  0  0  0  0  0  0  0  0  0  0
   -7.8663    4.8694   27.9238 C   0  0  0  0  0  0  0  0  0  0  0  0
   -9.0501    3.8017   26.2617 C   0  0  0  0  0  0  0  0  0  0  0  0
   -9.1826    2.7026   25.3575 C   0  0  0  0  0  0  0  0  0  0  0  0
   -8.6940    6.0131   27.8614 C   0  0  0  0  0  0  0  0  0  0  0  0
  -10.1138    4.6733   26.4644 C   0  0  0  0  0  0  0  0  0  0  0  0
   -9.9850    5.5451   27.3341 C   0  0  0  0  0  0  0  0  0  0  0  0
   -8.6999    1.4526   25.7098 C   0  0  0  0  0  0  0  0  0  0  0  0
   -9.8262    2.9233   24.1125 C   0  0  0  0  0  0  0  0  0  0  0  0
   -8.7750    0.4227   24.7979 C   0  0  0  0  0  0  0  0  0  0  0  0
   -9.9209    1.8560   23.2245 C   0  0  0  0  0  0  0  0  0  0  0  0
   -9.3764    0.6271   23.5474 C   0  0  0  0  0  0  0  0  0  0  0  0
  3  4  1  0
  4  8  2  0
  8 10  1  0
 10 12  2  0
 12 11  1  0
 11  9  2  0
  9  4  1  0
  1  2  2  0
  2  5  1  0
  5  7  2  0
  7  6  1  0
  6  3  2  0
  3  1  1  0
M  END
$$$$
