No_818-complexes_sdf/6BKW-FPZ/2024-09-17-14-21-01/
     RDKit          3D

 40 43  0  0  0  0  0  0  0  0999 V2000
   -7.7129    4.2099   27.0854 C   0  0  0  0  0  0  0  0  0  0  0  0
   -8.9133    4.4736   27.0998 C   0  0  0  0  0  0  0  0  0  0  0  0
   -9.4616    5.6470   27.6290 C   0  0  0  0  0  0  0  0  0  0  0  0
   -7.2326    2.9175   26.7557 C   0  0  0  0  0  0  0  0  0  0  0  0
   -8.1546    1.9086   26.5054 C   0  0  0  0  0  0  0  0  0  0  0  0
   -7.6739    0.6359   26.2014 C   0  0  0  0  0  0  0  0  0  0  0  0
   -9.4630    2.3473   26.4144 C   0  0  0  0  0  0  0  0  0  0  0  0
   -9.8686    3.5233   26.7564 C   0  0  0  0  0  0  0  0  0  0  0  0
   -7.8909    0.0474   25.2141 O   0  0  0  0  0  0  0  0  0  0  0  0
   -6.9151   -0.0087   27.1949 O   0  0  0  0  0  0  0  0  0  0  0  0
   -8.7356    6.7266   27.3466 F   0  0  0  0  0  0  0  0  0  0  0  0
  -10.6899    5.9705   27.0914 F   0  0  0  0  0  0  0  0  0  0  0  0
   -9.5737    5.5799   28.8833 F   0  0  0  0  0  0  0  0  0  0  0  0
   -6.5498   -1.2588   27.2524 C   0  0  0  0  0  0  0  0  0  0  0  0
   -5.7573   -1.5509   28.3702 C   0  0  0  0  0  0  0  0  0  0  0  0
   -6.1699   -2.2131   29.2663 C   0  0  0  0  0  0  0  0  0  0  0  0
   -5.4343   -2.4331   30.6023 C   0  0  0  0  0  0  0  0  0  0  0  0
   -4.6580   -1.6892   30.8625 C   0  0  0  0  0  0  0  0  0  0  0  0
   -4.0286   -0.6773   29.9573 C   0  0  0  0  0  0  0  0  0  0  0  0
   -4.7199   -0.5914   28.7603 C   0  0  0  0  0  0  0  0  0  0  0  0
   -4.2008    0.4322   27.7827 C   0  0  0  0  0  0  0  0  0  0  0  0
   -4.5225    1.5217   27.8514 O   0  0  0  0  0  0  0  0  0  0  0  0
   -3.1543    0.0334   27.0754 N   0  0  0  0  0  0  0  0  0  0  0  0
   -2.5723   -1.2914   26.9119 C   0  0  0  0  0  0  0  0  0  0  0  0
   -3.8554   -1.6749   32.2690 C   0  0  0  0  0  0  0  0  0  0  0  0
   -4.4739   -1.6562   33.2513 C   0  0  0  0  0  0  0  0  0  0  0  0
   -3.9210   -1.5422   34.5880 C   0  0  0  0  0  0  0  0  0  0  0  0
   -2.5282   -1.3257   34.6419 C   0  0  0  0  0  0  0  0  0  0  0  0
   -1.7929   -1.2375   33.5048 C   0  0  0  0  0  0  0  0  0  0  0  0
   -2.4325   -1.3074   32.2450 C   0  0  0  0  0  0  0  0  0  0  0  0
   -2.5168    1.0683   26.2265 C   0  0  0  0  0  0  0  0  0  0  0  0
   -1.8589   -1.1714   35.9821 C   0  0  0  0  0  0  0  0  0  0  0  0
   -2.0257   -0.1178   36.5670 N   0  0  0  0  0  0  0  0  0  0  0  0
   -2.1698    0.0176   37.8968 C   0  0  0  0  0  0  0  0  0  0  0  0
   -3.1919    0.6016   38.4463 C   0  0  0  0  0  0  0  0  0  0  0  0
   -4.0704    0.0783   39.1236 C   0  0  0  0  0  0  0  0  0  0  0  0
   -5.3566    0.7570   39.6518 C   0  0  0  0  0  0  0  0  0  0  0  0
   -5.5393    2.0906   39.2544 C   0  0  0  0  0  0  0  0  0  0  0  0
   -4.6103    2.6641   38.3922 C   0  0  0  0  0  0  0  0  0  0  0  0
   -3.4774    2.0338   38.0078 C   0  0  0  0  0  0  0  0  0  0  0  0
  2  3  1  0
  5  6  1  0
  6  9  2  0
  6 10  1  0
  3 11  1  0
  3 12  1  0
  3 13  1  0
 10 14  1  0
 14 15  1  0
 20 21  1  0
 21 22  2  0
 21 23  1  0
 23 24  1  0
 18 25  1  0
 23 31  1  0
 28 32  1  0
 32 33  1  0
 33 34  1  0
 34 35  1  0
 15 16  2  0
 16 17  1  0
 17 18  2  0
 18 19  1  0
 19 20  2  0
 20 15  1  0
 25 26  2  0
 26 27  1  0
 27 28  2  0
 28 29  1  0
 29 30  2  0
 30 25  1  0
 35 36  2  0
 36 37  1  0
 37 38  2  0
 38 39  1  0
 39 40  2  0
 40 35  1  0
  1  2  2  0
  2  8  1  0
  8  7  2  0
  7  5  1  0
  5  4  2  0
  4  1  1  0
M  END
$$$$
