No_835-complexes_sdf/6BKW-FPZ/2024-09-17-14-21-01/
     RDKit          3D

 21 23  0  0  0  0  0  0  0  0999 V2000
   -7.9040    3.9820   27.1177 C   0  0  0  0  0  0  0  0  0  0  0  0
   -9.0711    4.3164   27.0630 C   0  0  0  0  0  0  0  0  0  0  0  0
   -9.5294    5.4517   27.7215 C   0  0  0  0  0  0  0  0  0  0  0  0
   -7.4336    2.7132   26.5681 C   0  0  0  0  0  0  0  0  0  0  0  0
   -8.3353    1.8569   26.0442 C   0  0  0  0  0  0  0  0  0  0  0  0
   -9.6477    2.2853   25.9146 C   0  0  0  0  0  0  0  0  0  0  0  0
  -10.0346    3.4497   26.4483 C   0  0  0  0  0  0  0  0  0  0  0  0
   -7.8608    0.5626   25.5840 C   0  0  0  0  0  0  0  0  0  0  0  0
   -8.4785   -0.4415   25.8827 O   0  0  0  0  0  0  0  0  0  0  0  0
   -6.9224    4.7272   27.8456 N   0  0  0  0  0  0  0  0  0  0  0  0
   -7.2790    5.9082   28.4348 C   0  0  0  0  0  0  0  0  0  0  0  0
   -8.6310    6.3387   28.1912 C   0  0  0  0  0  0  0  0  0  0  0  0
   -8.1794   -1.5914   25.5656 C   0  0  0  0  0  0  0  0  0  0  0  0
   -8.5825   -2.7325   25.9536 C   0  0  0  0  0  0  0  0  0  0  0  0
   -9.4996   -2.6879   26.9665 C   0  0  0  0  0  0  0  0  0  0  0  0
   -9.8312   -1.8070   27.6919 C   0  0  0  0  0  0  0  0  0  0  0  0
  -10.8595   -1.6108   28.7580 C   0  0  0  0  0  0  0  0  0  0  0  0
  -11.3916   -0.3538   29.0433 C   0  0  0  0  0  0  0  0  0  0  0  0
  -10.8317    0.8201   28.4013 C   0  0  0  0  0  0  0  0  0  0  0  0
   -9.6498    0.7216   27.7088 C   0  0  0  0  0  0  0  0  0  0  0  0
   -9.2392   -0.6127   27.3654 C   0  0  0  0  0  0  0  0  0  0  0  0
  5  8  1  0
  8  9  1  0
  9 13  1  0
 13 14  1  0
 14 15  2  3
 15 16  1  0
  2  7  1  0
  7  6  2  0
  6  5  1  0
  5  4  2  0
  4  1  1  0
  1  2  1  0
  2  3  2  0
  3 12  1  0
 12 11  2  0
 11 10  1  0
 10  1  2  0
 16 17  2  0
 17 18  1  0
 18 19  2  0
 19 20  1  0
 20 21  2  0
 21 16  1  0
M  END
$$$$
