No_8118-complexes_sdf/6BKW-FPZ/2024-09-17-14-21-01/
     RDKit          3D

 40 45  0  0  0  0  0  0  0  0999 V2000
   -7.9040    3.9820   27.1177 C   0  0  0  0  0  0  0  0  0  0  0  0
   -8.2057    2.8231   26.8733 C   0  0  0  0  0  0  0  0  0  0  0  0
   -9.2962    2.4021   26.1155 C   0  0  0  0  0  0  0  0  0  0  0  0
   -8.7358    5.0662   26.5917 C   0  0  0  0  0  0  0  0  0  0  0  0
   -9.7618    4.7023   25.7546 C   0  0  0  0  0  0  0  0  0  0  0  0
  -10.0066    3.4105   25.4922 C   0  0  0  0  0  0  0  0  0  0  0  0
   -8.3943    6.4760   26.8801 C   0  0  0  0  0  0  0  0  0  0  0  0
   -8.6599    6.8011   28.0203 F   0  0  0  0  0  0  0  0  0  0  0  0
   -9.0760    7.3183   25.9822 F   0  0  0  0  0  0  0  0  0  0  0  0
   -7.0701    6.7350   26.8066 F   0  0  0  0  0  0  0  0  0  0  0  0
   -7.3595    1.6695   27.4981 C   0  0  0  0  0  0  0  0  0  0  0  0
   -7.7946    0.4046   27.4293 N   0  0  0  0  0  0  0  0  0  0  0  0
   -6.9840   -0.6143   27.7661 C   0  0  0  0  0  0  0  0  0  0  0  0
   -5.6993   -0.2886   28.1851 C   0  0  0  0  0  0  0  0  0  0  0  0
   -5.2114    1.0429   28.1599 C   0  0  0  0  0  0  0  0  0  0  0  0
   -5.9897    2.0103   27.7562 C   0  0  0  0  0  0  0  0  0  0  0  0
   -4.8065   -1.3937   28.6893 C   0  0  0  0  0  0  0  0  0  0  0  0
   -5.0065   -2.2640   29.1988 N   0  0  0  0  0  0  0  0  0  0  0  0
   -3.3044   -1.1019   28.3795 C   0  0  0  0  0  0  0  0  0  0  0  0
   -6.0560   -2.4787   29.9274 C   0  0  2  0  0  0  0  0  0  0  0  0
   -6.3637   -1.7529   31.0030 C   0  0  0  0  0  0  0  0  0  0  0  0
   -5.2236   -1.2510   31.7927 C   0  0  0  0  0  0  0  0  0  0  0  0
   -5.4385   -0.6704   33.0617 C   0  0  0  0  0  0  0  0  0  0  0  0
   -4.2902   -0.4625   33.8547 C   0  0  0  0  0  0  0  0  0  0  0  0
   -3.0048   -0.6845   33.3856 C   0  0  0  0  0  0  0  0  0  0  0  0
   -2.8479   -1.1791   32.0597 C   0  0  0  0  0  0  0  0  0  0  0  0
   -3.9276   -1.4851   31.3643 C   0  0  0  0  0  0  0  0  0  0  0  0
   -2.7789    0.1352   28.2359 C   0  0  0  0  0  0  0  0  0  0  0  0
   -3.7708    1.3010   27.8591 C   0  0  0  0  0  0  0  0  0  0  0  0
   -4.7092   -3.5476   28.4043 C   0  0  0  0  0  0  0  0  0  0  0  0
   -1.9471   -0.3089   34.1316 O   0  0  0  0  0  0  0  0  0  0  0  0
   -5.3695   -4.5705   28.5393 C   0  0  0  0  0  0  0  0  0  0  0  0
   -6.7974   -3.7439   29.8257 C   0  0  2  0  0  0  0  0  0  0  0  0
   -7.9774   -3.7659   30.7435 C   0  0  0  0  0  0  0  0  0  0  0  0
   -6.4082   -4.7456   29.1553 C   0  0  0  0  0  0  0  0  0  0  0  0
   -9.1660   -3.1093   30.3492 C   0  0  0  0  0  0  0  0  0  0  0  0
   -8.0742   -4.5556   31.8821 C   0  0  0  0  0  0  0  0  0  0  0  0
   -9.1355   -4.5990   32.7041 C   0  0  0  0  0  0  0  0  0  0  0  0
  -10.3534   -3.0681   31.1388 C   0  0  0  0  0  0  0  0  0  0  0  0
  -10.3435   -3.6874   32.1954 C   0  0  0  0  0  0  0  0  0  0  0  0
  4  7  1  0
  7  8  1  0
  7  9  1  0
  7 10  1  0
  2 11  1  0
 17 18  1  0
 18 20  1  0
 20 21  1  1
 21 22  1  0
 18 30  1  0
 25 31  1  0
 20 33  1  0
 33 34  1  1
 32 35  1  0
 33 35  1  0
 32 30  1  0
  1  2  2  0
  2  3  1  0
  3  6  2  0
  6  5  1  0
  5  4  2  0
  4  1  1  0
 15 29  1  0
 29 28  2  0
 28 19  1  0
 19 17  2  0
 17 14  1  0
 22 23  2  0
 23 24  1  0
 24 25  2  0
 25 26  1  0
 26 27  2  0
 27 22  1  0
 11 12  2  0
 12 13  1  0
 13 14  2  0
 14 15  1  0
 15 16  2  0
 16 11  1  0
 34 36  2  0
 36 39  1  0
 39 40  2  0
 40 38  1  0
 38 37  2  0
 37 34  1  0
M  END
$$$$
