No_8975-complexes_sdf/6BKW-FPZ/2024-09-17-14-21-01/
     RDKit          3D

 16 17  0  0  0  0  0  0  0  0999 V2000
   -7.7129    4.2099   27.0854 C   0  0  0  0  0  0  0  0  0  0  0  0
   -8.2112    3.0637   26.9225 C   0  0  0  0  0  0  0  0  0  0  0  0
   -9.4446    2.8304   26.1868 C   0  0  0  0  0  0  0  0  0  0  0  0
   -8.4697    5.3956   26.7238 C   0  0  0  0  0  0  0  0  0  0  0  0
   -8.0091    6.7588   26.9904 C   0  0  0  0  0  0  0  0  0  0  0  0
  -10.1208    3.9213   25.7408 C   0  0  0  0  0  0  0  0  0  0  0  0
   -9.5939    5.2027   25.9665 C   0  0  0  0  0  0  0  0  0  0  0  0
   -8.6501    7.8970   26.5643 C   0  0  0  0  0  0  0  0  0  0  0  0
   -7.4581    1.8110   27.3740 C   0  0  0  0  0  0  0  0  0  0  0  0
   -7.9705    0.5241   27.2681 C   0  0  0  0  0  0  0  0  0  0  0  0
   -7.2123   -0.5481   27.6813 C   0  0  0  0  0  0  0  0  0  0  0  0
   -5.9239   -0.3328   28.1915 C   0  0  0  0  0  0  0  0  0  0  0  0
   -5.3656    0.9587   28.2013 C   0  0  0  0  0  0  0  0  0  0  0  0
   -6.0737    1.9803   27.7847 C   0  0  0  0  0  0  0  0  0  0  0  0
   -4.1246    1.1416   28.6519 F   0  0  0  0  0  0  0  0  0  0  0  0
   -6.9428    6.7873   27.8533 O   0  0  0  0  0  0  0  0  0  0  0  0
  4  5  1  0
  5  8  1  0
  2  9  1  0
 13 15  1  0
  5 16  2  0
  1  2  2  0
  2  3  1  0
  3  6  2  0
  6  7  1  0
  7  4  2  0
  4  1  1  0
  9 10  2  0
 10 11  1  0
 11 12  2  0
 12 13  1  0
 13 14  2  0
 14  9  1  0
M  END
$$$$
