No_8517-complexes_sdf/6BKW-FPZ/2024-09-17-14-21-01/
     RDKit          3D

 40 46  0  0  0  0  0  0  0  0999 V2000
   -7.9040    3.9820   27.1177 C   0  0  0  0  0  0  0  0  0  0  0  0
   -8.2057    2.8231   26.8733 C   0  0  0  0  0  0  0  0  0  0  0  0
   -8.7695    5.0740   26.7916 C   0  0  0  0  0  0  0  0  0  0  0  0
   -8.4337    6.4678   27.0913 C   0  0  0  0  0  0  0  0  0  0  0  0
   -9.3742    2.4311   26.2346 C   0  0  0  0  0  0  0  0  0  0  0  0
  -10.2395    3.4267   25.8887 C   0  0  0  0  0  0  0  0  0  0  0  0
   -9.9567    4.7548   26.1374 C   0  0  0  0  0  0  0  0  0  0  0  0
   -7.9449    7.5014   26.9590 N   0  0  0  0  0  0  0  0  0  0  0  0
   -7.2426    1.6814   27.2966 C   0  0  0  0  0  0  0  0  0  0  0  0
   -6.0087    2.0274   27.8848 C   0  0  0  0  0  0  0  0  0  0  0  0
   -5.1037    0.9580   28.2351 C   0  0  0  0  0  0  0  0  0  0  0  0
   -5.4618   -0.3379   28.1129 C   0  0  0  0  0  0  0  0  0  0  0  0
   -7.5027    0.3286   27.2315 C   0  0  0  0  0  0  0  0  0  0  0  0
   -6.7197   -0.6261   27.6596 C   0  0  0  0  0  0  0  0  0  0  0  0
   -4.5378   -1.3752   28.6505 C   0  0  1  0  0  0  0  0  0  0  0  0
   -3.4917   -1.5604   28.0139 C   0  0  0  0  0  0  0  0  0  0  0  0
   -4.2457   -1.2092   30.1305 C   0  0  0  0  0  0  0  0  0  0  0  0
   -3.3995   -1.9595   30.6930 C   0  0  2  0  0  0  0  0  0  0  0  0
   -3.1647   -1.8620   32.1290 C   0  0  0  0  0  0  0  0  0  0  0  0
   -2.2003   -2.5462   32.8031 C   0  0  0  0  0  0  0  0  0  0  0  0
   -2.3926   -2.4386   28.5356 C   0  0  0  0  0  0  0  0  0  0  0  0
   -2.2051   -2.2657   29.9624 C   0  0  0  0  0  0  0  0  0  0  0  0
   -4.1050   -1.0531   32.9536 C   0  0  0  0  0  0  0  0  0  0  0  0
   -4.6724   -1.5098   33.7186 N   0  0  0  0  0  0  0  0  0  0  0  0
   -2.5735   -2.7772   34.2386 C   0  0  0  0  0  0  0  0  0  0  0  0
   -3.7902   -2.2208   34.7543 C   0  0  0  0  0  0  0  0  0  0  0  0
   -5.3727   -2.7382   28.6678 C   0  0  0  0  0  0  0  0  0  0  0  0
   -6.4314   -3.0325   28.2746 C   0  0  0  0  0  0  0  0  0  0  0  0
   -7.2500   -1.9326   27.7409 C   0  0  1  0  0  0  0  0  0  0  0  0
   -8.6587   -2.1246   27.7674 C   0  0  0  0  0  0  0  0  0  0  0  0
   -9.1970   -3.3450   27.6352 C   0  0  0  0  0  0  0  0  0  0  0  0
  -10.5492   -3.4083   27.6045 C   0  0  0  0  0  0  0  0  0  0  0  0
  -11.2188   -4.5764   27.5187 C   0  0  0  0  0  0  0  0  0  0  0  0
  -11.3705   -2.1545   27.7558 C   0  0  0  0  0  0  0  0  0  0  0  0
  -10.7671   -0.8770   27.8991 C   0  0  0  0  0  0  0  0  0  0  0  0
   -9.4261   -0.8776   27.9251 C   0  0  0  0  0  0  0  0  0  0  0  0
   -8.8049    0.3238   27.6106 N   0  0  0  0  0  0  0  0  0  0  0  0
   -4.2812   -2.4546   36.1100 C   0  0  0  0  0  0  0  0  0  0  0  0
   -3.8330   -1.5587   37.0270 C   0  0  0  0  0  0  0  0  0  0  0  0
   -4.4222   -1.4845   38.2478 C   0  0  0  0  0  0  0  0  0  0  0  0
  3  4  1  0
  4  8  3  0
  2  9  1  0
 12 15  1  0
 15 16  1  6
 15 17  1  0
 18 19  1  1
 16 21  1  0
 18 22  1  0
 21 22  1  0
 15 27  1  0
 14 29  1  0
 29 28  1  1
 29 30  1  0
 13 37  1  0
 36 37  1  0
 26 38  1  0
 38 39  1  0
 39 40  2  0
 33 32  1  0
 18 17  1  0
 28 27  1  0
  1  2  2  0
  2  5  1  0
  5  6  2  0
  6  7  1  0
  7  3  2  0
  3  1  1  0
 30 31  2  0
 31 32  1  0
 32 34  2  0
 34 35  1  0
 35 36  2  0
 36 30  1  0
  9 10  2  0
 10 11  1  0
 11 12  2  0
 12 14  1  0
 14 13  2  0
 13  9  1  0
 19 20  2  0
 20 25  1  0
 25 26  2  0
 26 24  1  0
 24 23  2  0
 23 19  1  0
M  END
$$$$
