No_8931-complexes_sdf/6BKW-FPZ/2024-09-17-14-21-01/
     RDKit          3D

 35 39  0  0  0  0  0  0  0  0999 V2000
   -7.9040    3.9820   27.1177 C   0  0  0  0  0  0  0  0  0  0  0  0
   -8.2057    2.8231   26.8733 C   0  0  0  0  0  0  0  0  0  0  0  0
   -7.4766    1.7477   27.4593 C   0  0  0  0  0  0  0  0  0  0  0  0
   -8.7468    5.1251   26.6967 C   0  0  0  0  0  0  0  0  0  0  0  0
   -9.7234    4.8589   25.8202 C   0  0  0  0  0  0  0  0  0  0  0  0
   -9.9711    3.5858   25.4266 C   0  0  0  0  0  0  0  0  0  0  0  0
   -9.2266    2.4957   25.9600 C   0  0  0  0  0  0  0  0  0  0  0  0
   -7.8394    0.3721   27.3404 C   0  0  0  0  0  0  0  0  0  0  0  0
   -7.1362   -0.5937   27.9114 C   0  0  0  0  0  0  0  0  0  0  0  0
   -5.8557   -0.3307   28.4547 C   0  0  0  0  0  0  0  0  0  0  0  0
   -5.3585    0.9906   28.4093 C   0  0  0  0  0  0  0  0  0  0  0  0
   -6.0907    1.9632   27.9066 C   0  0  0  0  0  0  0  0  0  0  0  0
   -8.4205    6.5129   27.1058 C   0  0  0  0  0  0  0  0  0  0  0  0
   -7.9053    7.5651   26.9676 N   0  0  0  0  0  0  0  0  0  0  0  0
   -5.0292   -1.4134   29.0479 C   0  0  0  0  0  0  0  0  0  0  0  0
   -5.3512   -2.3931   29.3742 O   0  0  0  0  0  0  0  0  0  0  0  0
   -3.6233   -1.1551   28.9546 N   0  0  0  0  0  0  0  0  0  0  0  0
   -2.9607   -0.0629   28.4951 C   0  0  0  0  0  0  0  0  0  0  0  0
   -3.7414    1.1393   28.1990 C   0  0  0  0  0  0  0  0  0  0  0  0
  -11.0032    3.3289   24.4128 C   0  0  2  0  0  0  0  0  0  0  0  0
  -12.2405    3.0579   24.8198 C   0  0  0  0  0  0  0  0  0  0  0  0
  -12.5601    2.9971   26.2137 C   0  0  0  0  0  0  0  0  0  0  0  0
  -13.9637    2.7786   26.6196 C   0  0  0  0  0  0  0  0  0  0  0  0
  -14.8502    2.6689   25.7103 C   0  0  0  0  0  0  0  0  0  0  0  0
  -14.6137    2.7563   24.3587 C   0  0  0  0  0  0  0  0  0  0  0  0
  -13.3522    3.0206   23.9296 C   0  0  0  0  0  0  0  0  0  0  0  0
  -10.6000    3.3257   23.0459 C   0  0  1  0  0  0  0  0  0  0  0  0
  -10.3346    2.1768   22.2981 C   0  0  0  0  0  0  0  0  0  0  0  0
  -10.9470    4.5170   22.2768 C   0  0  0  0  0  0  0  0  0  0  0  0
  -10.5943    4.6710   20.9629 C   0  0  0  0  0  0  0  0  0  0  0  0
  -10.0470    0.9270   22.9741 C   0  0  0  0  0  0  0  0  0  0  0  0
   -9.6376    0.0551   22.6274 C   0  0  0  0  0  0  0  0  0  0  0  0
   -9.5664   -0.0926   21.1323 C   0  0  0  0  0  0  0  0  0  0  0  0
  -10.0358    0.9464   20.3884 C   0  0  0  0  0  0  0  0  0  0  0  0
  -10.3025    2.1545   20.9603 C   0  0  0  0  0  0  0  0  0  0  0  0
  2  3  1  0
  4 13  1  0
 13 14  3  0
 10 15  1  0
 15 16  2  0
 15 17  1  0
 17 18  1  0
 11 19  1  0
 20  6  1  1
 20 27  1  0
 27 28  1  0
 27 29  1  6
 29 30  2  0
 20 21  1  0
 19 18  1  0
  1  2  2  0
  2  7  1  0
  7  6  2  0
  6  5  1  0
  5  4  2  0
  4  1  1  0
 28 31  2  0
 31 32  1  0
 32 33  2  0
 33 34  1  0
 34 35  2  0
 35 28  1  0
  3  8  2  0
  8  9  1  0
  9 10  2  0
 10 11  1  0
 11 12  2  0
 12  3  1  0
 21 22  2  0
 22 23  1  0
 23 24  2  0
 24 25  1  0
 25 26  2  0
 26 21  1  0
M  END
$$$$
