No_8411-complexes_sdf/6BKW-FPZ/2024-09-17-14-21-01/
     RDKit          3D

 34 37  0  0  0  0  0  0  0  0999 V2000
   -7.7129    4.2099   27.0854 C   0  0  0  0  0  0  0  0  0  0  0  0
   -7.7814    5.1722   27.8972 C   0  0  0  0  0  0  0  0  0  0  0  0
   -8.8776    3.8408   26.3416 C   0  0  0  0  0  0  0  0  0  0  0  0
   -9.9844    4.6492   26.4743 C   0  0  0  0  0  0  0  0  0  0  0  0
   -8.7830    6.1594   27.8870 C   0  0  0  0  0  0  0  0  0  0  0  0
   -9.9269    5.8191   27.1183 C   0  0  0  0  0  0  0  0  0  0  0  0
   -8.8618    2.6242   25.5633 C   0  0  0  0  0  0  0  0  0  0  0  0
   -8.2819    1.4836   26.1793 C   0  0  0  0  0  0  0  0  0  0  0  0
   -8.1204    0.3164   25.5040 C   0  0  0  0  0  0  0  0  0  0  0  0
   -8.5645    0.1791   24.5346 C   0  0  0  0  0  0  0  0  0  0  0  0
   -9.2897    1.2283   23.7343 C   0  0  0  0  0  0  0  0  0  0  0  0
   -9.3657    2.4531   24.3171 C   0  0  0  0  0  0  0  0  0  0  0  0
   -9.8058    1.0831   22.3739 C   0  0  0  0  0  0  0  0  0  0  0  0
  -10.8131    0.7111   22.2093 N   0  0  0  0  0  0  0  0  0  0  0  0
  -11.4875    0.5298   21.1116 C   0  0  0  0  0  0  0  0  0  0  0  0
  -10.8330    0.0269   20.1808 C   0  0  0  0  0  0  0  0  0  0  0  0
  -10.4108   -1.1793   20.2925 C   0  0  0  0  0  0  0  0  0  0  0  0
  -10.8883   -2.2061   19.9306 C   0  0  0  0  0  0  0  0  0  0  0  0
  -10.3283   -3.5659   20.0932 C   0  0  0  0  0  0  0  0  0  0  0  0
   -8.8763    1.4656   21.5136 O   0  0  0  0  0  0  0  0  0  0  0  0
   -9.0660   -3.6419   20.6561 C   0  0  0  0  0  0  0  0  0  0  0  0
   -8.3538   -2.5129   20.9750 C   0  0  0  0  0  0  0  0  0  0  0  0
   -8.8770   -1.3457   20.8053 C   0  0  0  0  0  0  0  0  0  0  0  0
  -12.3367    1.6950   20.8111 C   0  0  0  0  0  0  0  0  0  0  0  0
   -6.9880   -2.6590   21.5428 C   0  0  0  0  0  0  0  0  0  0  0  0
   -6.5276   -1.8437   22.5369 C   0  0  0  0  0  0  0  0  0  0  0  0
   -6.0719   -3.6293   21.0178 C   0  0  0  0  0  0  0  0  0  0  0  0
   -5.8697   -2.3754   23.7418 C   0  0  0  0  0  0  0  0  0  0  0  0
   -4.9860   -3.4858   23.3869 C   0  0  0  0  0  0  0  0  0  0  0  0
   -5.3192   -4.2932   22.1877 C   0  0  0  0  0  0  0  0  0  0  0  0
   -4.2266   -4.0056   24.2357 F   0  0  0  0  0  0  0  0  0  0  0  0
  -13.3530    1.8776   21.4003 C   0  0  0  0  0  0  0  0  0  0  0  0
  -14.0888    2.5788   21.5614 C   0  0  0  0  0  0  0  0  0  0  0  0
  -13.9985    3.7927   20.6144 C   0  0  0  0  0  0  0  0  0  0  0  0
  3  7  1  0
 11 13  1  0
 13 14  1  0
 14 15  1  0
 15 16  2  3
 16 17  1  0
 13 20  2  0
 15 24  1  0
 22 25  1  0
 29 31  1  0
 24 32  2  3
 32 33  1  0
 33 34  2  0
 25 26  2  0
 26 28  1  0
 28 29  2  0
 29 30  1  0
 30 27  2  0
 27 25  1  0
 17 18  2  0
 18 19  1  0
 19 21  2  0
 21 22  1  0
 22 23  2  0
 23 17  1  0
  1  2  2  0
  2  5  1  0
  5  6  2  0
  6  4  1  0
  4  3  2  0
  3  1  1  0
  7  8  2  0
  8  9  1  0
  9 10  2  0
 10 11  1  0
 11 12  2  0
 12  7  1  0
M  END
$$$$
