No_8165-complexes_sdf/6BKW-FPZ/2024-09-17-14-21-01/
     RDKit          3D

 17 18  0  0  0  0  0  0  0  0999 V2000
   -7.2496    3.8871   27.4508 C   0  0  0  0  0  0  0  0  0  0  0  0
   -7.6161    2.7143   27.1523 C   0  0  0  0  0  0  0  0  0  0  0  0
   -8.8302    2.4659   26.5056 C   0  0  0  0  0  0  0  0  0  0  0  0
   -8.1584    5.0090   27.3234 C   0  0  0  0  0  0  0  0  0  0  0  0
   -9.3788    4.7965   26.7695 C   0  0  0  0  0  0  0  0  0  0  0  0
   -9.7028    3.5649   26.3276 C   0  0  0  0  0  0  0  0  0  0  0  0
   -6.5552    1.6737   27.4428 C   0  0  0  0  0  0  0  0  0  0  0  0
   -6.9794    0.3269   27.6483 C   0  0  0  0  0  0  0  0  0  0  0  0
   -6.0812   -0.5926   28.1515 C   0  0  0  0  0  0  0  0  0  0  0  0
   -4.7528   -0.1687   28.4098 C   0  0  0  0  0  0  0  0  0  0  0  0
   -4.3800    1.1330   28.1962 C   0  0  0  0  0  0  0  0  0  0  0  0
   -5.2540    2.0190   27.8288 C   0  0  0  0  0  0  0  0  0  0  0  0
   -7.7183    6.3784   27.7646 C   0  0  0  0  0  0  0  0  0  0  0  0
   -3.8044   -1.2068   28.9700 C   0  0  0  0  0  0  0  0  0  0  0  0
   -2.7426   -1.3380   28.7229 C   0  0  0  0  0  0  0  0  0  0  0  0
   -2.1358   -0.5284   27.6398 C   0  0  0  0  0  0  0  0  0  0  0  0
   -2.4759    0.6959   27.3102 C   0  0  0  0  0  0  0  0  0  0  0  0
  2  7  1  0
  4 13  1  0
 10 14  1  0
 14 15  1  0
 15 16  2  3
 16 17  1  0
  1  2  2  0
  2  3  1  0
  3  6  2  0
  6  5  1  0
  5  4  2  0
  4  1  1  0
  7  8  2  0
  8  9  1  0
  9 10  2  0
 10 11  1  0
 11 12  2  0
 12  7  1  0
M  END
$$$$
