No_8397-complexes_sdf/6BKW-FPZ/2024-09-17-14-21-01/
     RDKit          3D

 11 11  0  0  0  0  0  0  0  0999 V2000
   -7.2496    3.8871   27.4508 C   0  0  0  0  0  0  0  0  0  0  0  0
   -7.6161    2.7143   27.1523 C   0  0  0  0  0  0  0  0  0  0  0  0
   -7.1618    1.8631   27.5232 C   0  0  0  0  0  0  0  0  0  0  0  0
   -8.0036    5.1085   27.2100 C   0  0  0  0  0  0  0  0  0  0  0  0
   -9.1035    5.1173   26.6797 C   0  0  0  0  0  0  0  0  0  0  0  0
   -9.6475    3.9396   26.1445 C   0  0  0  0  0  0  0  0  0  0  0  0
   -8.9486    2.7269   26.4505 C   0  0  0  0  0  0  0  0  0  0  0  0
   -7.5700    0.4269   27.3663 C   0  0  0  0  0  0  0  0  0  0  0  0
   -6.7407   -0.6456   27.6354 C   0  0  0  0  0  0  0  0  0  0  0  0
   -5.4734   -0.3844   28.1467 C   0  0  0  0  0  0  0  0  0  0  0  0
   -4.9542    0.8958   28.2821 C   0  0  0  0  0  0  0  0  0  0  0  0
  1  2  1  0
  2  3  2  3
  1  4  1  0
  4  5  1  0
  5  6  1  0
  2  7  1  0
  6  7  1  0
  3  8  1  0
  8  9  1  0
  9 10  2  3
 10 11  1  0
M  END
$$$$
