No_8555-complexes_sdf/6BKW-FPZ/2024-09-17-14-21-01/
     RDKit          3D

 32 37  0  0  0  0  0  0  0  0999 V2000
   -7.7129    4.2099   27.0854 C   0  0  0  0  0  0  0  0  0  0  0  0
   -8.2112    3.0637   26.9225 C   0  0  0  0  0  0  0  0  0  0  0  0
   -7.5138    1.9223   27.4249 C   0  0  0  0  0  0  0  0  0  0  0  0
   -6.5434    4.4363   27.9024 C   0  0  0  0  0  0  0  0  0  0  0  0
   -6.2005    2.1121   27.9323 C   0  0  0  0  0  0  0  0  0  0  0  0
   -5.7560    3.3924   28.1795 C   0  0  0  0  0  0  0  0  0  0  0  0
   -8.5326    5.4191   26.7935 C   0  0  0  0  0  0  0  0  0  0  0  0
   -8.3082    6.6032   27.3246 N   0  0  0  0  0  0  0  0  0  0  0  0
   -9.2044    5.4773   25.5962 N   0  0  0  0  0  0  0  0  0  0  0  0
   -5.4149    0.9198   28.3348 C   0  0  0  0  0  0  0  0  0  0  0  0
   -4.1552    1.0392   28.9033 C   0  0  0  0  0  0  0  0  0  0  0  0
   -3.3980   -0.0761   29.2932 C   0  0  0  0  0  0  0  0  0  0  0  0
   -3.8671   -1.3218   29.0389 C   0  0  0  0  0  0  0  0  0  0  0  0
   -5.9593   -0.3797   28.1252 C   0  0  0  0  0  0  0  0  0  0  0  0
   -7.1684   -0.5248   27.5457 C   0  0  0  0  0  0  0  0  0  0  0  0
   -7.9577    0.5723   27.1679 C   0  0  0  0  0  0  0  0  0  0  0  0
   -5.1499   -1.5063   28.5057 C   0  0  0  0  0  0  0  0  0  0  0  0
   -9.0061    7.6581   26.7740 C   0  0  0  0  0  0  0  0  0  0  0  0
   -9.5974    4.2904   25.0621 C   0  0  0  0  0  0  0  0  0  0  0  0
   -9.0872    3.0377   25.7103 C   0  0  0  0  0  0  0  0  0  0  0  0
  -10.5203    4.1761   24.1458 N   0  0  0  0  0  0  0  0  0  0  0  0
  -10.7029    3.2264   23.2835 C   0  0  0  0  0  0  0  0  0  0  0  0
  -10.5279    3.4201   21.9653 C   0  0  0  0  0  0  0  0  0  0  0  0
  -10.5180    2.4071   20.9478 C   0  0  0  0  0  0  0  0  0  0  0  0
  -10.6739    1.0924   21.4022 C   0  0  0  0  0  0  0  0  0  0  0  0
  -10.8037    0.8360   22.7592 C   0  0  0  0  0  0  0  0  0  0  0  0
  -10.7589    1.8360   23.6886 C   0  0  0  0  0  0  0  0  0  0  0  0
   -7.7601   -1.8379   27.3182 C   0  0  0  0  0  0  0  0  0  0  0  0
   -8.8996   -2.0183   26.7421 C   0  0  0  0  0  0  0  0  0  0  0  0
   -9.9386   -1.3655   26.8619 C   0  0  0  0  0  0  0  0  0  0  0  0
   -9.9651    0.0948   26.9866 C   0  0  0  0  0  0  0  0  0  0  0  0
   -9.0341    0.2783   26.5118 O   0  0  0  0  0  0  0  0  0  0  0  0
  8 18  1  0
 19 21  1  0
 21 22  1  0
 15 28  1  0
 28 29  1  0
 29 30  2  0
 30 31  1  0
 16 32  1  0
 31 32  1  0
  8  7  1  0
  5 10  2  0
 14 15  2  0
 15 16  1  0
 16  3  2  0
  2  3  1  0
  3  5  1  0
  5  6  1  0
  6  4  2  0
  4  1  1  0
 10 11  1  0
 11 12  2  0
 12 13  1  0
 13 17  2  0
 17 14  1  0
 14 10  1  0
 22 23  2  0
 23 24  1  0
 24 25  2  0
 25 26  1  0
 26 27  2  0
 27 22  1  0
  1  2  2  0
  2 20  1  0
 20 19  2  0
 19  9  1  0
  9  7  2  0
  7  1  1  0
M  END
$$$$
