No_8211-complexes_sdf/6BKW-FPZ/2024-09-17-14-21-01/
     RDKit          3D

 40 44  0  0  0  0  0  0  0  0999 V2000
   -7.2496    3.8871   27.4508 C   0  0  0  0  0  0  0  0  0  0  0  0
   -7.6161    2.7143   27.1523 C   0  0  0  0  0  0  0  0  0  0  0  0
   -6.9719    1.5838   27.5324 C   0  0  0  0  0  0  0  0  0  0  0  0
   -5.6316    1.7305   27.9933 C   0  0  0  0  0  0  0  0  0  0  0  0
   -5.8952    4.0984   27.9705 C   0  0  0  0  0  0  0  0  0  0  0  0
   -5.1627    3.0216   28.2671 C   0  0  0  0  0  0  0  0  0  0  0  0
   -8.0937    5.0798   27.1839 C   0  0  0  0  0  0  0  0  0  0  0  0
   -7.8460    6.3676   27.7750 C   0  0  0  0  0  0  0  0  0  0  0  0
   -9.1724    4.9648   26.3051 C   0  0  0  0  0  0  0  0  0  0  0  0
   -8.6318    7.4308   27.3497 C   0  0  0  0  0  0  0  0  0  0  0  0
   -4.7635    0.5821   28.2857 C   0  0  0  0  0  0  0  0  0  0  0  0
   -5.2741   -0.8836   28.7395 P   0  0  1  0  0  0  0  0  0  0  0  0
   -4.5709   -1.7151   28.5025 O   0  0  0  0  0  0  0  0  0  0  0  0
   -5.6260   -0.6343   30.2491 O   0  0  0  0  0  0  0  0  0  0  0  0
   -6.6839   -1.0165   28.0908 O   0  0  0  0  0  0  0  0  0  0  0  0
   -9.6434    6.0769   25.6065 C   0  0  0  0  0  0  0  0  0  0  0  0
   -9.4430    7.3240   26.2131 C   0  0  0  0  0  0  0  0  0  0  0  0
   -7.0723   -2.1917   27.5884 C   0  0  0  0  0  0  0  0  0  0  0  0
   -8.4716   -2.4276   28.1265 C   0  0  0  0  0  0  0  0  0  0  0  0
   -9.0583   -1.7478   29.1873 C   0  0  0  0  0  0  0  0  0  0  0  0
   -9.3200   -3.3763   27.4623 C   0  0  0  0  0  0  0  0  0  0  0  0
  -10.6136   -3.6419   27.8386 C   0  0  0  0  0  0  0  0  0  0  0  0
  -11.1555   -2.9755   28.9380 C   0  0  0  0  0  0  0  0  0  0  0  0
  -10.3417   -1.9822   29.6198 C   0  0  0  0  0  0  0  0  0  0  0  0
   -4.7953   -1.2524   31.2424 C   0  0  0  0  0  0  0  0  0  0  0  0
   -3.8339   -0.8537   31.4259 C   0  0  0  0  0  0  0  0  0  0  0  0
   -3.1108   -0.8078   32.3149 C   0  0  0  0  0  0  0  0  0  0  0  0
   -3.5858   -1.3865   33.6193 C   0  0  0  0  0  0  0  0  0  0  0  0
   -4.9270   -1.7766   33.5892 C   0  0  0  0  0  0  0  0  0  0  0  0
   -5.6529   -1.6752   32.3947 C   0  0  0  0  0  0  0  0  0  0  0  0
   -2.7633   -1.3883   34.8183 C   0  0  0  0  0  0  0  0  0  0  0  0
   -3.2379   -1.1726   35.9173 N   0  0  0  0  0  0  0  0  0  0  0  0
   -2.7847   -0.6387   36.9796 C   0  0  0  0  0  0  0  0  0  0  0  0
   -3.5242   -0.2603   38.1722 C   0  0  0  0  0  0  0  0  0  0  0  0
   -3.1153    0.5303   39.2083 C   0  0  0  0  0  0  0  0  0  0  0  0
   -1.7667    0.9890   39.1801 C   0  0  0  0  0  0  0  0  0  0  0  0
   -1.4909    0.0621   36.9598 C   0  0  0  0  0  0  0  0  0  0  0  0
   -0.9969    0.7975   38.0592 C   0  0  0  0  0  0  0  0  0  0  0  0
   -1.4825   -1.2232   34.7063 O   0  0  0  0  0  0  0  0  0  0  0  0
   -6.9788   -2.1984   32.3417 C   0  0  0  0  0  0  0  0  0  0  0  0
  1  7  1  0
  4 11  1  0
 12 11  1  6
 12 13  2  0
 12 14  1  0
 12 15  1  0
 15 18  1  0
 18 19  1  0
 14 25  1  0
 28 31  1  0
 31 32  1  0
 32 33  1  0
 31 39  2  0
 30 40  1  0
 25 26  2  0
 26 27  1  0
 27 28  2  0
 28 29  1  0
 29 30  2  0
 30 25  1  0
  7  8  2  0
  8 10  1  0
 10 17  2  0
 17 16  1  0
 16  9  2  0
  9  7  1  0
  1  2  2  0
  2  3  1  0
  3  4  2  0
  4  6  1  0
  6  5  2  0
  5  1  1  0
 33 34  2  0
 34 35  1  0
 35 36  2  0
 36 38  1  0
 38 37  2  0
 37 33  1  0
 19 20  2  0
 20 24  1  0
 24 23  2  0
 23 22  1  0
 22 21  2  0
 21 19  1  0
M  END
$$$$
