No_8321-complexes_sdf/6BKW-FPZ/2024-09-17-14-21-01/
     RDKit          3D

 40 44  0  0  0  0  0  0  0  0999 V2000
   -7.9040    3.9820   27.1177 C   0  0  0  0  0  0  0  0  0  0  0  0
   -7.8663    4.8694   27.9238 C   0  0  0  0  0  0  0  0  0  0  0  0
   -9.0491    3.8523   26.2542 C   0  0  0  0  0  0  0  0  0  0  0  0
   -8.7661    5.9491   27.9690 C   0  0  0  0  0  0  0  0  0  0  0  0
   -9.9279    4.8544   26.1938 C   0  0  0  0  0  0  0  0  0  0  0  0
   -9.8044    5.9413   27.0782 C   0  0  0  0  0  0  0  0  0  0  0  0
   -7.0257    2.8867   27.1969 N   0  0  0  0  0  0  0  0  0  0  0  0
   -7.2963    1.6007   26.7912 C   0  0  0  0  0  0  0  0  0  0  0  0
   -6.8894    0.6043   27.5963 C   0  0  0  0  0  0  0  0  0  0  0  0
   -5.6273    0.7051   28.2366 C   0  0  0  0  0  0  0  0  0  0  0  0
   -5.0817    2.0682   28.2729 C   0  0  0  0  0  0  0  0  0  0  0  0
   -5.8183    3.0810   27.9373 C   0  0  0  0  0  0  0  0  0  0  0  0
   -4.9210   -0.4189   28.7774 C   0  0  2  0  0  0  0  0  0  0  0  0
   -5.5232   -1.3505   29.4105 C   0  0  0  0  0  0  0  0  0  0  0  0
   -3.4874   -0.4004   28.7292 C   0  0  0  0  0  0  0  0  0  0  0  0
   -2.9321   -1.3297   28.2461 C   0  0  0  0  0  0  0  0  0  0  0  0
   -3.0779   -1.6966   27.2315 F   0  0  0  0  0  0  0  0  0  0  0  0
   -1.4866   -1.1568   28.4069 F   0  0  0  0  0  0  0  0  0  0  0  0
   -2.9676   -2.5195   29.0617 F   0  0  0  0  0  0  0  0  0  0  0  0
   -5.7628   -2.2530   29.8706 C   0  0  0  0  0  0  0  0  0  0  0  0
   -6.4726   -2.9101   30.8847 C   0  0  0  0  0  0  0  0  0  0  0  0
   -7.1083   -2.2060   31.8754 C   0  0  0  0  0  0  0  0  0  0  0  0
   -7.8930   -2.8592   32.9324 C   0  0  0  0  0  0  0  0  0  0  0  0
   -8.5584   -3.9268   32.6095 C   0  0  0  0  0  0  0  0  0  0  0  0
   -8.0479   -4.7500   31.5514 C   0  0  0  0  0  0  0  0  0  0  0  0
   -7.1154   -4.2125   30.6666 C   0  0  0  0  0  0  0  0  0  0  0  0
   -9.4588   -4.5776   33.5944 C   0  0  0  0  0  0  0  0  0  0  0  0
   -9.1054   -4.9805   34.6840 C   0  0  0  0  0  0  0  0  0  0  0  0
  -10.8559   -4.6127   33.1159 C   0  0  0  0  0  0  0  0  0  0  0  0
   -9.9535   -5.5510   35.6434 C   0  0  0  0  0  0  0  0  0  0  0  0
  -11.7679   -5.1929   34.0626 C   0  0  0  0  0  0  0  0  0  0  0  0
  -11.3351   -5.6345   35.2877 C   0  0  0  0  0  0  0  0  0  0  0  0
  -11.3235   -4.1167   31.8773 C   0  0  0  0  0  0  0  0  0  0  0  0
  -11.8041   -3.0366   31.7737 C   0  0  0  0  0  0  0  0  0  0  0  0
  -12.2087   -2.3774   30.5437 C   0  0  0  0  0  0  0  0  0  0  0  0
  -11.9350   -3.1466   29.4084 C   0  0  0  0  0  0  0  0  0  0  0  0
  -11.3768   -4.3960   29.4971 C   0  0  0  0  0  0  0  0  0  0  0  0
  -11.0127   -4.8974   30.7488 C   0  0  0  0  0  0  0  0  0  0  0  0
  -12.3355   -2.6084   28.0761 C   0  0  0  0  0  0  0  0  0  0  0  0
  -12.1320   -3.0338   27.1347 O   0  0  0  0  0  0  0  0  0  0  0  0
  1  7  1  0
  7  8  1  0
  8  9  1  0
  9 10  1  0
 10 11  1  0
  7 12  1  0
 11 12  1  0
 10 13  1  0
 13 14  1  1
 13 15  1  0
 15 16  1  0
 16 17  1  0
 16 18  1  0
 16 19  1  0
 14 20  3  0
 20 21  1  0
 24 27  1  0
 29 33  1  0
 36 39  1  0
 39 40  2  0
 27 28  2  0
 28 30  1  0
 30 32  2  0
 32 31  1  0
 31 29  2  0
 29 27  1  0
 33 34  2  0
 34 35  1  0
 35 36  2  0
 36 37  1  0
 37 38  2  0
 38 33  1  0
  1  2  2  0
  2  4  1  0
  4  6  2  0
  6  5  1  0
  5  3  2  0
  3  1  1  0
 21 22  2  0
 22 23  1  0
 23 24  2  0
 24 25  1  0
 25 26  2  0
 26 21  1  0
M  END
$$$$
