No_8906-complexes_sdf/6BKW-FPZ/2024-09-17-14-21-01/
     RDKit          3D

 20 22  0  0  0  0  0  0  0  0999 V2000
   -7.7129    4.2099   27.0854 C   0  0  0  0  0  0  0  0  0  0  0  0
   -8.2112    3.0637   26.9225 C   0  0  0  0  0  0  0  0  0  0  0  0
   -8.5108    5.3904   26.9436 C   0  0  0  0  0  0  0  0  0  0  0  0
   -9.7256    5.1955   26.3518 C   0  0  0  0  0  0  0  0  0  0  0  0
   -9.4995    2.8258   26.4878 C   0  0  0  0  0  0  0  0  0  0  0  0
  -10.2542    3.9691   26.2055 C   0  0  0  0  0  0  0  0  0  0  0  0
   -7.9168    6.7086   27.1908 C   0  0  0  0  0  0  0  0  0  0  0  0
   -7.1743    1.9288   27.2994 C   0  0  0  0  0  0  0  0  0  0  0  0
   -6.0468    2.2277   27.7226 N   0  0  0  0  0  0  0  0  0  0  0  0
   -5.1094    1.1018   28.0305 C   0  0  0  0  0  0  0  0  0  0  0  0
   -5.5992   -0.1318   27.9690 C   0  0  0  0  0  0  0  0  0  0  0  0
   -7.2975    0.4649   27.3021 C   0  0  0  0  0  0  0  0  0  0  0  0
   -3.9258    1.2580   28.6883 N   0  0  0  0  0  0  0  0  0  0  0  0
   -6.7574    6.8607   28.1151 Cl  0  0  0  0  0  0  0  0  0  0  0  0
   -8.4737    7.8985   26.5435 C   0  0  0  0  0  0  0  0  0  0  0  0
   -3.4185    0.0697   29.0233 C   0  0  0  0  0  0  0  0  0  0  0  0
   -4.3797   -0.8521   28.6112 C   0  0  0  0  0  0  0  0  0  0  0  0
  -11.5775    3.7850   25.6157 C   0  0  0  0  0  0  0  0  0  0  0  0
  -11.7492    3.7636   24.2461 C   0  0  0  0  0  0  0  0  0  0  0  0
  -13.0044    3.6591   23.6452 C   0  0  0  0  0  0  0  0  0  0  0  0
  3  7  1  0
  2  8  1  0
  8  9  1  0
  9 10  2  0
 10 11  1  0
  8 12  1  0
 11 12  2  0
 10 13  1  0
  7 14  1  0
  7 15  1  0
 13 16  2  0
 11 17  1  0
 16 17  1  0
  6 18  1  0
 18 19  2  3
 19 20  1  0
  1  2  2  0
  2  5  1  0
  5  6  2  0
  6  4  1  0
  4  3  2  0
  3  1  1  0
M  END
$$$$
