No_8433-complexes_sdf/6BKW-FPZ/2024-09-17-14-21-01/
     RDKit          3D

 24 26  0  0  0  0  0  0  0  0999 V2000
   -7.2496    3.8871   27.4508 C   0  0  0  0  0  0  0  0  0  0  0  0
   -7.9379    4.9063   27.8518 C   0  0  0  0  0  0  0  0  0  0  0  0
   -7.5112    6.1898   27.6280 C   0  0  0  0  0  0  0  0  0  0  0  0
   -7.8078    2.6331   27.2522 C   0  0  0  0  0  0  0  0  0  0  0  0
   -9.1846    2.4724   27.5426 C   0  0  0  0  0  0  0  0  0  0  0  0
   -9.9168    3.5155   28.0405 C   0  0  0  0  0  0  0  0  0  0  0  0
   -9.3366    4.7963   28.1727 C   0  0  0  0  0  0  0  0  0  0  0  0
  -11.3249    3.2653   28.4083 C   0  0  0  0  0  0  0  0  0  0  0  0
  -12.1802    4.2448   28.6670 C   0  0  0  0  0  0  0  0  0  0  0  0
  -13.5622    4.0651   28.9769 C   0  0  0  0  0  0  0  0  0  0  0  0
  -14.4390    5.0805   29.0308 C   0  0  0  0  0  0  0  0  0  0  0  0
  -14.1494    6.2364   28.1942 C   0  0  0  0  0  0  0  0  0  0  0  0
  -12.8283    6.1822   27.6176 C   0  0  0  0  0  0  0  0  0  0  0  0
  -11.9622    5.3377   27.6789 C   0  0  0  0  0  0  0  0  0  0  0  0
   -7.0346    1.4387   26.8661 C   0  0  0  0  0  0  0  0  0  0  0  0
   -5.9561    0.9709   27.7148 C   0  0  0  0  0  0  0  0  0  0  0  0
   -5.2500   -0.1759   27.4649 C   0  0  0  0  0  0  0  0  0  0  0  0
   -5.6617   -0.9541   26.3983 C   0  0  0  0  0  0  0  0  0  0  0  0
   -7.4374    0.5030   25.9674 C   0  0  0  0  0  0  0  0  0  0  0  0
   -6.7702   -0.5958   25.6505 C   0  0  0  0  0  0  0  0  0  0  0  0
   -4.0585   -0.4896   28.2902 C   0  0  0  0  0  0  0  0  0  0  0  0
   -3.9189   -1.5230   28.2337 F   0  0  0  0  0  0  0  0  0  0  0  0
   -3.0331    0.3174   27.8758 F   0  0  0  0  0  0  0  0  0  0  0  0
   -4.2931   -0.0020   29.5898 F   0  0  0  0  0  0  0  0  0  0  0  0
  6  8  1  0
  4 15  1  0
 17 21  1  0
 21 22  1  0
 21 23  1  0
 21 24  1  0
  3  2  1  0
  8  9  1  0
 15 16  2  0
 16 17  1  0
 17 18  2  0
 18 20  1  0
 20 19  2  0
 19 15  1  0
  1  2  2  0
  2  7  1  0
  7  6  2  0
  6  5  1  0
  5  4  2  0
  4  1  1  0
  9 10  2  0
 10 11  1  0
 11 12  2  0
 12 13  1  0
 13 14  2  0
 14  9  1  0
M  END
$$$$
