No_8334-complexes_sdf/6BKW-FPZ/2024-09-17-14-21-01/
     RDKit          3D

 40 45  0  0  0  0  0  0  0  0999 V2000
   -7.9040    3.9820   27.1177 C   0  0  0  0  0  0  0  0  0  0  0  0
   -9.0711    4.3164   27.0630 C   0  0  0  0  0  0  0  0  0  0  0  0
   -9.5182    5.5541   27.5777 C   0  0  0  0  0  0  0  0  0  0  0  0
   -6.9424    4.7983   27.8424 C   0  0  0  0  0  0  0  0  0  0  0  0
   -7.3526    5.9739   28.3909 C   0  0  0  0  0  0  0  0  0  0  0  0
   -8.6479    6.3742   28.2169 C   0  0  0  0  0  0  0  0  0  0  0  0
  -10.0621    3.4422   26.3345 C   0  0  0  0  0  0  0  0  0  0  0  0
   -9.6335    2.6185   25.4370 C   0  0  0  0  0  0  0  0  0  0  0  0
  -10.2933    1.9173   24.6163 C   0  0  0  0  0  0  0  0  0  0  0  0
  -11.6984    2.1399   24.5091 C   0  0  0  0  0  0  0  0  0  0  0  0
  -12.2140    3.1068   25.3838 C   0  0  0  0  0  0  0  0  0  0  0  0
  -11.4270    3.8596   26.2418 C   0  0  0  0  0  0  0  0  0  0  0  0
   -9.7470    0.8626   23.6839 C   0  0  1  0  0  0  0  0  0  0  0  0
   -9.6910    1.0803   22.4015 C   0  0  2  0  0  0  0  0  0  0  0  0
  -10.1584    2.2285   21.7558 C   0  0  0  0  0  0  0  0  0  0  0  0
  -10.3447    2.3904   20.4003 C   0  0  0  0  0  0  0  0  0  0  0  0
  -10.7265    3.6496   19.9143 C   0  0  0  0  0  0  0  0  0  0  0  0
  -10.9797    4.7400   20.8132 C   0  0  0  0  0  0  0  0  0  0  0  0
  -10.7675    4.5538   22.1358 C   0  0  0  0  0  0  0  0  0  0  0  0
  -10.3659    3.4067   22.6778 C   0  0  0  0  0  0  0  0  0  0  0  0
   -9.1778   -0.2581   24.3947 C   0  0  0  0  0  0  0  0  0  0  0  0
   -8.9431   -0.3125   25.6340 C   0  0  0  0  0  0  0  0  0  0  0  0
   -8.3551   -1.4577   26.3088 C   0  0  0  0  0  0  0  0  0  0  0  0
   -7.9118   -2.4595   25.5495 C   0  0  0  0  0  0  0  0  0  0  0  0
   -8.6285   -1.2361   23.4997 C   0  0  0  0  0  0  0  0  0  0  0  0
   -8.0090   -2.4063   24.1367 C   0  0  0  0  0  0  0  0  0  0  0  0
  -13.6812    3.3696   25.4008 C   0  0  0  0  0  0  0  0  0  0  0  0
  -14.3764    2.7242   26.1719 C   0  0  0  0  0  0  0  0  0  0  0  0
  -14.2054    4.3782   24.5007 C   0  0  0  0  0  0  0  0  0  0  0  0
  -15.8276    2.8627   26.1872 C   0  0  0  0  0  0  0  0  0  0  0  0
  -15.5219    4.6556   24.4638 C   0  0  0  0  0  0  0  0  0  0  0  0
  -16.0385    5.6621   23.5902 C   0  0  0  0  0  0  0  0  0  0  0  0
  -16.3397    3.9098   25.3369 C   0  0  0  0  0  0  0  0  0  0  0  0
  -16.8817    5.2647   22.5988 C   0  0  0  0  0  0  0  0  0  0  0  0
  -17.2707    6.1114   21.6882 C   0  0  0  0  0  0  0  0  0  0  0  0
  -16.8619    7.5282   21.7292 C   0  0  0  0  0  0  0  0  0  0  0  0
  -15.9894    7.9304   22.7187 C   0  0  0  0  0  0  0  0  0  0  0  0
  -15.5318    7.0516   23.7275 C   0  0  0  0  0  0  0  0  0  0  0  0
   -9.2498    0.1856   21.4560 F   0  0  0  0  0  0  0  0  0  0  0  0
  -11.0332    5.9673   23.1688 Cl  0  0  0  0  0  0  0  0  0  0  0  0
  2  7  1  0
 13  9  1  1
 13 14  1  0
 14 15  1  0
 13 21  1  0
 11 27  1  0
 31 32  1  0
 14 39  1  6
 19 40  1  0
 15 16  2  0
 16 17  1  0
 17 18  2  0
 18 19  1  0
 19 20  2  0
 20 15  1  0
  1  2  2  0
  2  3  1  0
  3  6  2  0
  6  5  1  0
  5  4  2  0
  4  1  1  0
 27 28  2  0
 28 30  1  0
 30 33  2  0
 33 31  1  0
 31 29  2  0
 29 27  1  0
 21 22  2  0
 22 23  1  0
 23 24  2  0
 24 26  1  0
 26 25  2  0
 25 21  1  0
  7  8  2  0
  8  9  1  0
  9 10  2  0
 10 11  1  0
 11 12  2  0
 12  7  1  0
 32 34  2  0
 34 35  1  0
 35 36  2  0
 36 37  1  0
 37 38  2  0
 38 32  1  0
M  END
$$$$
