No_8761-complexes_sdf/6BKW-FPZ/2024-09-17-14-21-01/
     RDKit          3D

 19 21  0  0  0  0  0  0  0  0999 V2000
   -7.2496    3.8871   27.4508 C   0  0  0  0  0  0  0  0  0  0  0  0
   -7.9379    4.9063   27.8518 C   0  0  0  0  0  0  0  0  0  0  0  0
   -7.5112    6.1898   27.6280 C   0  0  0  0  0  0  0  0  0  0  0  0
   -7.8078    2.6331   27.2522 C   0  0  0  0  0  0  0  0  0  0  0  0
   -9.1846    2.4724   27.5426 C   0  0  0  0  0  0  0  0  0  0  0  0
   -9.9168    3.5155   28.0405 C   0  0  0  0  0  0  0  0  0  0  0  0
   -9.3366    4.7963   28.1727 C   0  0  0  0  0  0  0  0  0  0  0  0
  -11.3249    3.2653   28.4083 C   0  0  0  0  0  0  0  0  0  0  0  0
  -11.8069    2.0065   28.6522 C   0  0  0  0  0  0  0  0  0  0  0  0
  -12.2308    4.3949   28.5300 C   0  0  0  0  0  0  0  0  0  0  0  0
  -13.0355    1.7869   29.2615 C   0  0  0  0  0  0  0  0  0  0  0  0
  -13.5337    4.1775   28.9579 C   0  0  0  0  0  0  0  0  0  0  0  0
  -13.9128    2.9046   29.3284 C   0  0  0  0  0  0  0  0  0  0  0  0
   -7.0613    1.4341   26.8652 C   0  0  0  0  0  0  0  0  0  0  0  0
   -7.6126    0.4774   26.0525 C   0  0  0  0  0  0  0  0  0  0  0  0
   -6.8912   -0.5787   25.7237 C   0  0  0  0  0  0  0  0  0  0  0  0
   -5.5926   -0.8025   26.2394 C   0  0  0  0  0  0  0  0  0  0  0  0
   -5.0356    0.1340   27.1292 C   0  0  0  0  0  0  0  0  0  0  0  0
   -5.7696    1.2628   27.4667 C   0  0  0  0  0  0  0  0  0  0  0  0
  6  8  1  0
  4 14  1  0
  3  2  1  0
  8  9  2  0
  9 11  1  0
 11 13  2  0
 13 12  1  0
 12 10  2  0
 10  8  1  0
  1  2  2  0
  2  7  1  0
  7  6  2  0
  6  5  1  0
  5  4  2  0
  4  1  1  0
 14 15  2  0
 15 16  1  0
 16 17  2  0
 17 18  1  0
 18 19  2  0
 19 14  1  0
M  END
$$$$
