No_8175-complexes_sdf/6BKW-FPZ/2024-09-17-14-21-01/
     RDKit          3D

 14 15  0  0  0  0  0  0  0  0999 V2000
   -7.7129    4.2099   27.0854 C   0  0  0  0  0  0  0  0  0  0  0  0
   -7.7814    5.1722   27.8972 C   0  0  0  0  0  0  0  0  0  0  0  0
   -8.8776    3.8408   26.3416 C   0  0  0  0  0  0  0  0  0  0  0  0
   -9.9844    4.6492   26.4743 C   0  0  0  0  0  0  0  0  0  0  0  0
   -8.8033    6.1375   27.8728 C   0  0  0  0  0  0  0  0  0  0  0  0
   -9.9554    5.8280   27.1736 C   0  0  0  0  0  0  0  0  0  0  0  0
   -8.8623    2.7517   25.6243 F   0  0  0  0  0  0  0  0  0  0  0  0
  -11.1412    4.3259   25.6436 C   0  0  0  0  0  0  0  0  0  0  0  0
  -11.0496    4.3544   24.1547 C   0  0  0  0  0  0  0  0  0  0  0  0
  -12.0902    4.0672   23.3616 C   0  0  0  0  0  0  0  0  0  0  0  0
  -13.3155    3.7552   23.9338 C   0  0  0  0  0  0  0  0  0  0  0  0
  -12.3525    3.8791   26.1027 C   0  0  0  0  0  0  0  0  0  0  0  0
  -13.4384    3.7315   25.3511 C   0  0  0  0  0  0  0  0  0  0  0  0
   -6.6516    5.6062   28.6209 O   0  0  0  0  0  0  0  0  0  0  0  0
  3  7  1  0
  4  8  1  0
  2 14  1  0
  1  2  2  0
  2  5  1  0
  5  6  2  0
  6  4  1  0
  4  3  2  0
  3  1  1  0
  8  9  2  0
  9 10  1  0
 10 11  2  0
 11 13  1  0
 13 12  2  0
 12  8  1  0
M  END
$$$$
