No_8072-complexes_sdf/6BKW-FPZ/2024-09-17-14-21-01/
     RDKit          3D

 30 33  0  0  0  0  0  0  0  0999 V2000
   -7.7129    4.2099   27.0854 C   0  0  0  0  0  0  0  0  0  0  0  0
   -8.2112    3.0637   26.9225 C   0  0  0  0  0  0  0  0  0  0  0  0
   -9.5629    2.7997   27.0678 C   0  0  0  0  0  0  0  0  0  0  0  0
   -8.5911    5.3704   27.2036 C   0  0  0  0  0  0  0  0  0  0  0  0
   -8.1116    6.7330   27.2869 C   0  0  1  0  0  0  0  0  0  0  0  0
  -10.4465    3.8282   27.2087 C   0  0  0  0  0  0  0  0  0  0  0  0
  -10.0139    5.1618   27.3218 C   0  0  0  0  0  0  0  0  0  0  0  0
  -10.0244    1.3746   26.9585 C   0  0  0  0  0  0  0  0  0  0  0  0
   -9.0787    0.4325   27.0570 C   0  0  0  0  0  0  0  0  0  0  0  0
   -9.4789   -0.9564   27.0789 C   0  0  0  0  0  0  0  0  0  0  0  0
   -8.4937   -1.9655   27.1898 C   0  0  0  0  0  0  0  0  0  0  0  0
   -7.1422   -1.5679   27.2240 C   0  0  0  0  0  0  0  0  0  0  0  0
   -6.7408   -0.2743   27.1343 C   0  0  0  0  0  0  0  0  0  0  0  0
   -7.7114    0.7533   27.1089 C   0  0  0  0  0  0  0  0  0  0  0  0
   -7.3316    2.0632   27.0379 N   0  0  0  0  0  0  0  0  0  0  0  0
   -6.9151    6.9062   27.7224 F   0  0  0  0  0  0  0  0  0  0  0  0
   -8.4030    7.5862   26.1278 N   0  0  0  0  0  0  0  0  0  0  0  0
  -11.4516    1.1196   27.0719 C   0  0  0  0  0  0  0  0  0  0  0  0
  -12.2315    2.1363   26.9439 F   0  0  0  0  0  0  0  0  0  0  0  0
  -11.5979    0.5588   28.3761 F   0  0  0  0  0  0  0  0  0  0  0  0
  -11.8405    0.1647   26.2056 F   0  0  0  0  0  0  0  0  0  0  0  0
   -5.3062    0.0854   27.2114 C   0  0  0  0  0  0  0  0  0  0  0  0
   -4.5063   -0.5427   28.2410 C   0  0  2  0  0  0  0  0  0  0  0  0
   -4.4181    0.3238   29.3799 C   0  0  0  0  0  0  0  0  0  0  0  0
   -3.1505   -0.9276   27.7448 C   0  0  0  0  0  0  0  0  0  0  0  0
   -2.3690   -1.4299   28.6459 C   0  0  0  0  0  0  0  0  0  0  0  0
   -2.1086   -0.5670   29.8747 C   0  0  0  0  0  0  0  0  0  0  0  0
   -3.5051   -0.2287   30.5245 C   0  0  0  0  0  0  0  0  0  0  0  0
   -3.7991   -0.3589   31.8206 C   0  0  0  0  0  0  0  0  0  0  0  0
   -2.9179   -0.4298   32.6803 O   0  0  0  0  0  0  0  0  0  0  0  0
  4  5  1  0
  5 16  1  0
  5 17  1  6
  8 18  1  0
 18 19  1  0
 18 20  1  0
 18 21  1  0
 13 22  1  0
 23 22  1  6
 23 24  1  0
 23 25  1  0
 25 26  1  0
 26 27  1  0
 24 28  1  0
 27 28  1  0
 28 29  1  0
 29 30  2  0
  1  2  2  0
  3  6  2  0
  6  7  1  0
  7  4  2  0
  4  1  1  0
  9 10  1  0
 10 11  2  0
 11 12  1  0
 12 13  2  0
 13 14  1  0
  2  3  1  0
  3  8  1  0
  8  9  2  0
  9 14  1  0
 14 15  2  0
 15  2  1  0
M  END
$$$$
