No_8582-complexes_sdf/6BKW-FPZ/2024-09-17-14-21-01/
     RDKit          3D

 31 35  0  0  0  0  0  0  0  0999 V2000
   -7.2496    3.8871   27.4508 C   0  0  0  0  0  0  0  0  0  0  0  0
   -8.5096    4.0291   27.2770 C   0  0  0  0  0  0  0  0  0  0  0  0
   -9.3451    2.8786   26.9046 C   0  0  0  0  0  0  0  0  0  0  0  0
   -6.6065    2.5680   27.5073 C   0  0  0  0  0  0  0  0  0  0  0  0
   -7.3970    1.4834   27.2271 C   0  0  0  0  0  0  0  0  0  0  0  0
   -8.7029    1.6398   26.9934 C   0  0  0  0  0  0  0  0  0  0  0  0
   -9.1106    5.3702   27.2076 C   0  0  0  0  0  0  0  0  0  0  0  0
  -10.3556    5.4502   27.5687 F   0  0  0  0  0  0  0  0  0  0  0  0
   -8.4310    6.2623   28.0573 F   0  0  0  0  0  0  0  0  0  0  0  0
   -8.9707    5.8692   25.9539 F   0  0  0  0  0  0  0  0  0  0  0  0
   -6.7334    0.2107   27.2381 C   0  0  0  0  0  0  0  0  0  0  0  0
   -5.4751    0.0761   27.8399 C   0  0  0  0  0  0  0  0  0  0  0  0
   -4.7872   -1.1550   27.8860 C   0  0  0  0  0  0  0  0  0  0  0  0
   -3.5572   -1.2179   28.6049 C   0  0  0  0  0  0  0  0  0  0  0  0
   -2.9999   -0.0729   29.2086 C   0  0  0  0  0  0  0  0  0  0  0  0
   -3.7601    1.1371   29.1927 C   0  0  0  0  0  0  0  0  0  0  0  0
   -4.9352    1.1760   28.5647 C   0  0  0  0  0  0  0  0  0  0  0  0
   -5.5452    2.4430   28.3003 N   0  0  0  0  0  0  0  0  0  0  0  0
   -7.4165   -0.9599   26.7530 C   0  0  0  0  0  0  0  0  0  0  0  0
   -7.4482   -1.3217   25.4880 C   0  0  0  0  0  0  0  0  0  0  0  0
   -6.8139   -0.5594   24.5430 C   0  0  0  0  0  0  0  0  0  0  0  0
   -6.8622   -0.7904   23.1078 C   0  0  0  0  0  0  0  0  0  0  0  0
   -7.7031   -1.7947   22.6669 C   0  0  0  0  0  0  0  0  0  0  0  0
   -8.4498   -2.5420   23.5787 C   0  0  0  0  0  0  0  0  0  0  0  0
   -8.3379   -2.3163   24.9334 C   0  0  0  0  0  0  0  0  0  0  0  0
   -8.0663   -1.8088   27.7755 C   0  0  0  0  0  0  0  0  0  0  0  0
   -7.3732   -2.8514   28.4176 C   0  0  0  0  0  0  0  0  0  0  0  0
   -8.0075   -3.6268   29.4053 C   0  0  0  0  0  0  0  0  0  0  0  0
   -9.3539   -3.3604   29.7087 C   0  0  0  0  0  0  0  0  0  0  0  0
   -9.4110   -1.5929   28.1611 C   0  0  0  0  0  0  0  0  0  0  0  0
  -10.0178   -2.3448   29.1275 C   0  0  0  0  0  0  0  0  0  0  0  0
  2  7  1  0
  7  8  1  0
  7  9  1  0
  7 10  1  0
 11 19  1  0
 19 26  1  0
 19 20  1  0
 12 13  1  0
 13 14  2  0
 14 15  1  0
 15 16  2  0
 16 17  1  0
  1  2  2  0
  2  3  1  0
  3  6  2  0
  6  5  1  0
  4  1  1  0
 20 21  2  0
 21 22  1  0
 22 23  2  0
 23 24  1  0
 24 25  2  0
 25 20  1  0
 26 27  2  0
 27 28  1  0
 28 29  2  0
 29 31  1  0
 31 30  2  0
 30 26  1  0
  4  5  2  0
  5 11  1  0
 11 12  2  0
 12 17  1  0
 17 18  2  0
 18  4  1  0
M  END
$$$$
