No_8944-complexes_sdf/6BKW-FPZ/2024-09-17-14-21-01/
     RDKit          3D

 36 41  0  0  0  0  0  0  0  0999 V2000
   -7.2496    3.8871   27.4508 C   0  0  0  0  0  0  0  0  0  0  0  0
   -8.5096    4.0291   27.2770 C   0  0  0  0  0  0  0  0  0  0  0  0
   -9.2677    5.1714   27.5773 C   0  0  0  0  0  0  0  0  0  0  0  0
   -6.5711    2.6400   27.2842 C   0  0  0  0  0  0  0  0  0  0  0  0
   -7.2939    1.5094   27.0532 C   0  0  0  0  0  0  0  0  0  0  0  0
   -8.6122    1.6580   26.7575 C   0  0  0  0  0  0  0  0  0  0  0  0
   -9.2984    2.8495   26.9904 C   0  0  0  0  0  0  0  0  0  0  0  0
   -9.2233    6.1510   26.7449 C   0  0  0  0  0  0  0  0  0  0  0  0
   -6.5758    0.2727   26.8843 C   0  0  0  0  0  0  0  0  0  0  0  0
   -5.4983    0.0312   27.7858 C   0  0  0  0  0  0  0  0  0  0  0  0
   -4.7782   -1.1778   27.7734 C   0  0  0  0  0  0  0  0  0  0  0  0
   -5.1517   -2.0576   26.8398 C   0  0  0  0  0  0  0  0  0  0  0  0
   -6.8470   -0.7703   26.1117 C   0  0  0  0  0  0  0  0  0  0  0  0
   -6.1840   -1.8875   25.9982 C   0  0  0  0  0  0  0  0  0  0  0  0
   -8.6354    7.4531   27.1617 C   0  0  0  0  0  0  0  0  0  0  0  0
   -8.8476    5.8036   25.5273 C   0  0  0  0  0  0  0  0  0  0  0  0
   -3.6554   -1.3432   28.7337 C   0  0  0  0  0  0  0  0  0  0  0  0
   -2.4716   -1.0655   28.4342 C   0  0  0  0  0  0  0  0  0  0  0  0
   -1.3870   -1.1541   29.4218 C   0  0  0  0  0  0  0  0  0  0  0  0
   -1.6766   -1.4402   30.7340 C   0  0  0  0  0  0  0  0  0  0  0  0
   -3.0262   -1.6203   31.0971 C   0  0  0  0  0  0  0  0  0  0  0  0
   -4.0638   -1.4942   30.1560 C   0  0  0  0  0  0  0  0  0  0  0  0
   -3.3705   -1.8263   32.5429 C   0  0  0  0  0  0  0  0  0  0  0  0
   -4.5656   -1.6648   32.9124 C   0  0  0  0  0  0  0  0  0  0  0  0
   -5.0029   -1.8435   34.3128 C   0  0  0  0  0  0  0  0  0  0  0  0
   -6.3355   -1.6460   34.7660 C   0  0  0  0  0  0  0  0  0  0  0  0
   -7.2498   -1.4788   33.6840 C   0  0  0  0  0  0  0  0  0  0  0  0
   -6.8941   -1.4455   32.3645 C   0  0  0  0  0  0  0  0  0  0  0  0
   -5.5811   -1.5387   32.0146 C   0  0  0  0  0  0  0  0  0  0  0  0
   -5.3008   -1.4402   30.6039 C   0  0  0  0  0  0  0  0  0  0  0  0
   -2.2060   -1.9583   33.4918 C   0  0  0  0  0  0  0  0  0  0  0  0
   -1.7541   -1.0504   34.1899 C   0  0  0  0  0  0  0  0  0  0  0  0
   -0.5756   -1.1727   34.9648 C   0  0  0  0  0  0  0  0  0  0  0  0
    0.0409   -2.3665   35.0256 C   0  0  0  0  0  0  0  0  0  0  0  0
   -0.4537   -3.4240   34.2563 C   0  0  0  0  0  0  0  0  0  0  0  0
   -1.5721   -3.2661   33.4309 C   0  0  0  0  0  0  0  0  0  0  0  0
  3  8  1  0
  5  9  1  0
  8 15  1  0
  8 16  1  0
 11 17  1  0
 23 31  1  0
  3  2  1  0
 24 25  2  0
 25 26  1  0
 26 27  2  0
 27 28  1  0
 28 29  2  0
 31 32  2  0
 32 33  1  0
 33 34  2  0
 34 35  1  0
 35 36  2  0
 36 31  1  0
  1  2  2  0
  2  7  1  0
  7  6  2  0
  6  5  1  0
  5  4  2  0
  4  1  1  0
 22 30  2  0
 30 29  1  0
 29 24  1  0
 24 23  1  0
 23 21  2  0
  9 10  2  0
 10 11  1  0
 11 12  2  0
 12 14  1  0
 14 13  2  0
 13  9  1  0
 17 18  2  0
 18 19  1  0
 19 20  2  0
 20 21  1  0
 21 22  1  0
 22 17  1  0
M  END
$$$$
