No_8490-complexes_sdf/6BKW-FPZ/2024-09-17-14-21-01/
     RDKit          3D

 11 11  0  0  0  0  0  0  0  0999 V2000
   -7.7129    4.2099   27.0854 C   0  0  0  0  0  0  0  0  0  0  0  0
   -8.9133    4.4736   27.0998 C   0  0  0  0  0  0  0  0  0  0  0  0
   -9.7135    3.9633   26.0300 C   0  0  0  0  0  0  0  0  0  0  0  0
   -7.1708    2.9509   26.6517 C   0  0  0  0  0  0  0  0  0  0  0  0
   -8.1422    2.1350   26.0104 C   0  0  0  0  0  0  0  0  0  0  0  0
  -10.9779    4.4822   25.7125 C   0  0  0  0  0  0  0  0  0  0  0  0
   -9.3806    2.6844   25.5517 C   0  0  0  0  0  0  0  0  0  0  0  0
  -11.2229    4.7379   24.4512 C   0  0  0  0  0  0  0  0  0  0  0  0
  -10.1909    4.5520   23.4314 C   0  0  0  0  0  0  0  0  0  0  0  0
  -10.6933    4.2780   22.1591 C   0  0  0  0  0  0  0  0  0  0  0  0
   -9.8081    3.8942   21.1520 C   0  0  0  0  0  0  0  0  0  0  0  0
  3  6  1  0
  6  8  2  3
  8  9  1  0
  9 10  2  3
 10 11  1  0
  1  2  2  0
  2  3  1  0
  3  7  2  0
  7  5  1  0
  5  4  2  0
  4  1  1  0
M  END
$$$$
