No_8574-complexes_sdf/6BKW-FPZ/2024-09-17-14-21-01/
     RDKit          3D

 24 27  0  0  0  0  0  0  0  0999 V2000
   -7.7129    4.2099   27.0854 C   0  0  0  0  0  0  0  0  0  0  0  0
   -7.7814    5.1722   27.8972 C   0  0  0  0  0  0  0  0  0  0  0  0
   -8.8776    3.8408   26.3416 C   0  0  0  0  0  0  0  0  0  0  0  0
   -9.9844    4.6492   26.4743 C   0  0  0  0  0  0  0  0  0  0  0  0
   -8.7830    6.1594   27.8870 C   0  0  0  0  0  0  0  0  0  0  0  0
   -9.9269    5.8191   27.1183 C   0  0  0  0  0  0  0  0  0  0  0  0
   -8.8618    2.6242   25.5633 C   0  0  0  0  0  0  0  0  0  0  0  0
   -9.6731    1.7818   25.8368 N   0  0  0  0  0  0  0  0  0  0  0  0
   -9.6428    0.5926   25.4263 C   0  0  0  0  0  0  0  0  0  0  0  0
  -10.5647   -0.3743   25.8584 C   0  0  0  0  0  0  0  0  0  0  0  0
  -11.3103    0.4261   26.8425 C   0  0  2  0  0  0  0  0  0  0  0  0
  -10.7043    1.7372   26.8702 C   0  0  0  0  0  0  0  0  0  0  0  0
  -12.3764   -0.0199   27.6768 C   0  0  0  0  0  0  0  0  0  0  0  0
  -13.0584    0.9833   28.3531 C   0  0  0  0  0  0  0  0  0  0  0  0
  -14.1242    0.6002   29.2580 C   0  0  0  0  0  0  0  0  0  0  0  0
  -14.3852   -0.7629   29.3722 C   0  0  0  0  0  0  0  0  0  0  0  0
  -12.8026   -1.2895   28.1054 C   0  0  0  0  0  0  0  0  0  0  0  0
  -13.7126   -1.6646   28.8540 C   0  0  0  0  0  0  0  0  0  0  0  0
   -8.7045    0.1130   24.3170 C   0  0  0  0  0  0  0  0  0  0  0  0
   -8.7281   -0.8832   23.6166 C   0  0  0  0  0  0  0  0  0  0  0  0
   -7.7854   -1.1294   22.5612 C   0  0  0  0  0  0  0  0  0  0  0  0
   -6.6365   -0.2585   22.5114 C   0  0  0  0  0  0  0  0  0  0  0  0
   -6.5509    0.7216   23.4770 C   0  0  0  0  0  0  0  0  0  0  0  0
   -7.4636    0.9638   24.3818 C   0  0  0  0  0  0  0  0  0  0  0  0
  3  7  1  0
  7  8  1  0
  8  9  1  0
  9 10  2  0
 10 11  1  0
  8 12  1  0
 11 12  1  0
 11 13  1  1
  9 19  1  0
 13 14  2  0
 14 15  1  0
 15 16  2  0
 16 18  1  0
 18 17  2  0
 17 13  1  0
  1  2  2  0
  2  5  1  0
  5  6  2  0
  6  4  1  0
  4  3  2  0
  3  1  1  0
 19 20  2  0
 20 21  1  0
 21 22  2  0
 22 23  1  0
 23 24  2  0
 24 19  1  0
M  END
$$$$
