No_8682-complexes_sdf/6BKW-FPZ/2024-09-17-14-21-01/
     RDKit          3D

 19 21  0  0  0  0  0  0  0  0999 V2000
   -7.9040    3.9820   27.1177 C   0  0  0  0  0  0  0  0  0  0  0  0
   -8.2057    2.8231   26.8733 C   0  0  0  0  0  0  0  0  0  0  0  0
   -7.4766    1.7477   27.4593 C   0  0  0  0  0  0  0  0  0  0  0  0
   -8.7468    5.1251   26.6967 C   0  0  0  0  0  0  0  0  0  0  0  0
   -8.4775    6.4967   27.1056 C   0  0  0  0  0  0  0  0  0  0  0  0
   -7.7864    0.3940   27.2703 C   0  0  0  0  0  0  0  0  0  0  0  0
   -9.0192    0.1650   26.6014 C   0  0  0  0  0  0  0  0  0  0  0  0
   -9.7483    1.1632   26.0299 C   0  0  0  0  0  0  0  0  0  0  0  0
   -9.3475    2.4797   26.2024 C   0  0  0  0  0  0  0  0  0  0  0  0
   -7.2511    6.7101   27.7758 C   0  0  0  0  0  0  0  0  0  0  0  0
   -6.8913    4.5606   28.0056 C   0  0  0  0  0  0  0  0  0  0  0  0
   -6.7121    5.7759   28.3700 N   0  0  0  0  0  0  0  0  0  0  0  0
   -7.0393   -0.6771   27.8787 C   0  0  0  0  0  0  0  0  0  0  0  0
   -5.7078   -0.4787   28.1816 C   0  0  0  0  0  0  0  0  0  0  0  0
   -4.9280   -1.5011   28.8296 C   0  0  0  0  0  0  0  0  0  0  0  0
   -3.5688   -1.1678   29.2003 C   0  0  0  0  0  0  0  0  0  0  0  0
   -3.0491    0.1043   28.8927 C   0  0  0  0  0  0  0  0  0  0  0  0
   -3.8561    1.0607   28.2841 C   0  0  0  0  0  0  0  0  0  0  0  0
   -5.0930    0.8121   27.9908 C   0  0  0  0  0  0  0  0  0  0  0  0
  6 13  1  0
 13 14  1  0
  2  1  1  0
 14 15  2  0
 15 16  1  0
 16 17  2  0
 17 18  1  0
 18 19  2  0
 19 14  1  0
  2  3  2  0
  3  6  1  0
  6  7  2  0
  7  8  1  0
  8  9  2  0
  9  2  1  0
  1  4  2  0
  4  5  1  0
  5 10  2  0
 10 12  1  0
 12 11  2  0
 11  1  1  0
M  END
$$$$
