No_8982-complexes_sdf/6BKW-FPZ/2024-09-17-14-21-01/
     RDKit          3D

 17 18  0  0  0  0  0  0  0  0999 V2000
   -7.9040    3.9820   27.1177 C   0  0  0  0  0  0  0  0  0  0  0  0
   -7.8663    4.8694   27.9238 C   0  0  0  0  0  0  0  0  0  0  0  0
   -7.4547    2.7080   27.4594 C   0  0  0  0  0  0  0  0  0  0  0  0
   -8.0927    6.2909   27.5184 C   0  0  0  0  0  0  0  0  0  0  0  0
   -8.9150    6.5640   26.4331 C   0  0  0  0  0  0  0  0  0  0  0  0
   -7.3743    1.4980   26.9652 C   0  0  0  0  0  0  0  0  0  0  0  0
   -6.7275    0.4485   27.4282 C   0  0  0  0  0  0  0  0  0  0  0  0
   -8.5826    4.1723   25.8829 C   0  0  0  0  0  0  0  0  0  0  0  0
   -9.1646    5.4271   25.5854 C   0  0  0  0  0  0  0  0  0  0  0  0
   -5.5530    0.6823   28.2031 C   0  0  0  0  0  0  0  0  0  0  0  0
   -4.8285   -0.4098   28.7691 C   0  0  0  0  0  0  0  0  0  0  0  0
   -5.2004   -1.6455   28.4781 C   0  0  0  0  0  0  0  0  0  0  0  0
   -6.9176   -0.9006   27.2758 C   0  0  0  0  0  0  0  0  0  0  0  0
   -8.1666   -1.1681   26.4585 C   0  0  0  0  0  0  0  0  0  0  0  0
   -6.2499   -1.9334   27.8067 C   0  0  0  0  0  0  0  0  0  0  0  0
   -8.8272   -1.9383   26.4870 C   0  0  0  0  0  0  0  0  0  0  0  0
  -10.0492   -2.1734   25.6723 C   0  0  0  0  0  0  0  0  0  0  0  0
  1  3  1  0
  3  6  2  3
  6  7  1  0
 14 16  1  0
 16 17  2  0
 14 13  1  0
  1  2  2  0
  2  4  1  0
  4  5  2  0
  5  9  1  0
  9  8  2  0
  8  1  1  0
  7 10  2  0
 10 11  1  0
 11 12  2  0
 12 15  1  0
 15 13  2  0
 13  7  1  0
M  END
$$$$
