No_8143-complexes_sdf/6BKW-FPZ/2024-09-17-14-21-01/
     RDKit          3D

 23 26  0  0  0  0  0  0  0  0999 V2000
   -7.9040    3.9820   27.1177 C   0  0  0  0  0  0  0  0  0  0  0  0
   -7.8663    4.8694   27.9238 C   0  0  0  0  0  0  0  0  0  0  0  0
   -9.0501    3.8017   26.2617 C   0  0  0  0  0  0  0  0  0  0  0  0
   -9.1826    2.7026   25.3575 C   0  0  0  0  0  0  0  0  0  0  0  0
   -8.6940    6.0131   27.8614 C   0  0  0  0  0  0  0  0  0  0  0  0
   -9.9755    4.8547   26.2361 C   0  0  0  0  0  0  0  0  0  0  0  0
  -10.9847    4.6960   25.3793 C   0  0  0  0  0  0  0  0  0  0  0  0
   -9.7639    5.9682   27.0337 C   0  0  0  0  0  0  0  0  0  0  0  0
   -8.5378    1.6038   25.5754 N   0  0  0  0  0  0  0  0  0  0  0  0
  -10.0428    2.7763   24.2654 C   0  0  0  0  0  0  0  0  0  0  0  0
  -10.9907    3.7623   24.2853 C   0  0  0  0  0  0  0  0  0  0  0  0
   -8.8542    0.4736   26.0934 C   0  0  0  0  0  0  0  0  0  0  0  0
   -7.9020   -0.5055   26.3857 C   0  0  0  0  0  0  0  0  0  0  0  0
  -10.1075    0.2671   26.4477 N   0  0  0  0  0  0  0  0  0  0  0  0
   -8.2407   -1.6842   27.1247 C   0  0  0  0  0  0  0  0  0  0  0  0
  -10.5026   -0.8394   27.2091 C   0  0  0  0  0  0  0  0  0  0  0  0
   -9.5873   -1.8085   27.5268 C   0  0  0  0  0  0  0  0  0  0  0  0
  -10.1082    1.6931   23.3739 C   0  0  0  0  0  0  0  0  0  0  0  0
  -10.0557    1.9926   22.0538 C   0  0  0  0  0  0  0  0  0  0  0  0
  -10.0617    0.9424   21.1077 C   0  0  0  0  0  0  0  0  0  0  0  0
   -9.9653   -0.4080   21.5863 C   0  0  0  0  0  0  0  0  0  0  0  0
   -9.9783   -0.6948   22.9387 C   0  0  0  0  0  0  0  0  0  0  0  0
   -9.9897    0.3963   23.8357 C   0  0  0  0  0  0  0  0  0  0  0  0
  4  9  1  0
  9 12  1  0
 10 18  1  0
 18 19  2  0
 19 20  1  0
 20 21  2  0
 21 22  1  0
 22 23  2  0
 23 18  1  0
  3  4  2  0
  4 10  1  0
 10 11  2  0
 11  7  1  0
  7  6  2  0
  1  2  2  0
  2  5  1  0
  5  8  2  0
  8  6  1  0
  6  3  1  0
  3  1  1  0
 12 13  2  0
 13 15  1  0
 15 17  2  0
 17 16  1  0
 16 14  2  0
 14 12  1  0
M  END
$$$$
