No_8496-complexes_sdf/6BKW-FPZ/2024-09-17-14-21-01/
     RDKit          3D

 19 21  0  0  0  0  0  0  0  0999 V2000
   -7.9040    3.9820   27.1177 C   0  0  0  0  0  0  0  0  0  0  0  0
   -8.2057    2.8231   26.8733 C   0  0  0  0  0  0  0  0  0  0  0  0
   -8.7695    5.0740   26.7916 C   0  0  0  0  0  0  0  0  0  0  0  0
   -9.9618    4.7598   26.1630 C   0  0  0  0  0  0  0  0  0  0  0  0
   -9.4200    2.4524   26.2849 C   0  0  0  0  0  0  0  0  0  0  0  0
  -10.2590    3.4815   25.9250 C   0  0  0  0  0  0  0  0  0  0  0  0
   -8.1804    6.4174   27.1235 C   0  0  0  0  0  0  0  0  0  0  0  0
   -8.9656    7.5322   26.8904 N   0  0  0  0  0  0  0  0  0  0  0  0
   -7.0700    6.4722   27.7071 O   0  0  0  0  0  0  0  0  0  0  0  0
   -7.2957    1.6406   27.2623 C   0  0  0  0  0  0  0  0  0  0  0  0
   -7.6216    0.3098   27.1061 C   0  0  0  0  0  0  0  0  0  0  0  0
   -6.6871   -0.6176   27.4172 C   0  0  0  0  0  0  0  0  0  0  0  0
   -5.4361   -0.2359   27.9688 C   0  0  0  0  0  0  0  0  0  0  0  0
   -5.1422    1.1076   28.1615 C   0  0  0  0  0  0  0  0  0  0  0  0
   -5.9729    2.0312   27.7979 C   0  0  0  0  0  0  0  0  0  0  0  0
   -4.4690   -1.2861   28.4111 C   0  0  0  0  0  0  0  0  0  0  0  0
   -3.3805   -0.9965   28.6055 C   0  0  0  0  0  0  0  0  0  0  0  0
   -2.9266    0.4446   28.7773 C   0  0  0  0  0  0  0  0  0  0  0  0
   -3.7899    1.4120   28.5608 C   0  0  0  0  0  0  0  0  0  0  0  0
  3  7  1  0
  7  8  1  0
  7  9  2  0
  2 10  1  0
 14 19  1  0
 19 18  2  0
 18 17  1  0
 17 16  2  0
 16 13  1  0
  1  2  2  0
  2  5  1  0
  5  6  2  0
  6  4  1  0
  4  3  2  0
  3  1  1  0
 10 11  2  0
 11 12  1  0
 12 13  2  0
 13 14  1  0
 14 15  2  0
 15 10  1  0
M  END
$$$$
