No_8096-complexes_sdf/6BKW-FPZ/2024-09-17-14-21-01/
     RDKit          3D

 16 17  0  0  0  0  0  0  0  0999 V2000
   -7.7129    4.2099   27.0854 C   0  0  0  0  0  0  0  0  0  0  0  0
   -8.9133    4.4736   27.0998 C   0  0  0  0  0  0  0  0  0  0  0  0
   -9.7135    3.9633   26.0300 C   0  0  0  0  0  0  0  0  0  0  0  0
   -6.8655    4.8824   28.1822 C   0  0  0  0  0  0  0  0  0  0  0  0
  -10.8856    4.5824   25.6430 C   0  0  0  0  0  0  0  0  0  0  0  0
   -7.2976    5.7414   28.7932 N   0  0  0  0  0  0  0  0  0  0  0  0
  -11.5915    4.0156   24.5772 C   0  0  0  0  0  0  0  0  0  0  0  0
  -11.0775    3.0116   23.8261 C   0  0  0  0  0  0  0  0  0  0  0  0
   -9.9082    2.4599   24.1847 C   0  0  0  0  0  0  0  0  0  0  0  0
   -9.1780    2.9804   25.2613 C   0  0  0  0  0  0  0  0  0  0  0  0
   -9.3300    5.5802   27.9137 C   0  0  0  0  0  0  0  0  0  0  0  0
   -8.5012    6.1682   28.7411 N   0  0  0  0  0  0  0  0  0  0  0  0
   -9.3524    1.3095   23.4047 C   0  0  0  0  0  0  0  0  0  0  0  0
   -9.7235    0.1381   23.5900 C   0  0  0  0  0  0  0  0  0  0  0  0
  -10.3783   -0.3577   24.2811 C   0  0  0  0  0  0  0  0  0  0  0  0
  -10.7509   -1.0838   24.9326 C   0  0  0  0  0  0  0  0  0  0  0  0
  9 13  1  0
 13 14  1  0
 14 15  2  3
 15 16  1  0
  3  2  1  0
  1  2  2  0
  2 11  1  0
 11 12  2  0
 12  6  1  0
  6  4  2  0
  4  1  1  0
  3  5  2  0
  5  7  1  0
  7  8  2  0
  8  9  1  0
  9 10  2  0
 10  3  1  0
M  END
$$$$
