No_8286-complexes_sdf/6BKW-FPZ/2024-09-17-14-21-01/
     RDKit          3D

 40 45  0  0  0  0  0  0  0  0999 V2000
   -7.9040    3.9820   27.1177 C   0  0  0  0  0  0  0  0  0  0  0  0
   -7.8663    4.8694   27.9238 C   0  0  0  0  0  0  0  0  0  0  0  0
   -9.0501    3.8017   26.2617 C   0  0  0  0  0  0  0  0  0  0  0  0
   -9.1826    2.7026   25.3575 C   0  0  0  0  0  0  0  0  0  0  0  0
   -8.6940    6.0131   27.8614 C   0  0  0  0  0  0  0  0  0  0  0  0
  -10.1138    4.6733   26.4644 C   0  0  0  0  0  0  0  0  0  0  0  0
   -9.8579    5.8496   27.1764 C   0  0  0  0  0  0  0  0  0  0  0  0
  -10.1059    1.8433   25.6293 C   0  0  2  0  0  0  0  0  0  0  0  0
  -10.0715    0.7158   24.9330 C   0  0  0  0  0  0  0  0  0  0  0  0
   -9.9586   -0.4343   25.6247 C   0  0  0  0  0  0  0  0  0  0  0  0
   -9.3906   -1.5543   25.1667 C   0  0  0  0  0  0  0  0  0  0  0  0
  -10.1602    0.5835   23.5224 C   0  0  0  0  0  0  0  0  0  0  0  0
   -9.7047   -0.6320   22.8838 C   0  0  0  0  0  0  0  0  0  0  0  0
   -9.4306   -1.7379   23.7049 C   0  0  0  0  0  0  0  0  0  0  0  0
  -11.5531    2.4854   25.4136 C   0  0  0  0  0  0  0  0  0  0  0  0
  -10.0457    1.4778   27.2132 C   0  0  0  0  0  0  0  0  0  0  0  0
  -12.5119    2.2953   26.3710 C   0  0  0  0  0  0  0  0  0  0  0  0
  -11.9252    2.7338   24.1022 C   0  0  0  0  0  0  0  0  0  0  0  0
  -13.1667    3.3150   23.9229 C   0  0  0  0  0  0  0  0  0  0  0  0
  -13.7538    2.8738   26.2105 C   0  0  0  0  0  0  0  0  0  0  0  0
  -14.0921    3.3812   24.9469 C   0  0  0  0  0  0  0  0  0  0  0  0
   -9.7824   -0.0172   27.2307 C   0  0  0  0  0  0  0  0  0  0  0  0
  -14.7619    2.9985   27.2953 C   0  0  1  0  0  0  0  0  0  0  0  0
  -14.2755    2.8054   28.5711 C   0  0  0  0  0  0  0  0  0  0  0  0
  -13.7292    3.8681   29.2489 C   0  0  0  0  0  0  0  0  0  0  0  0
  -13.0760    3.6165   30.5848 C   0  0  0  0  0  0  0  0  0  0  0  0
  -14.3584    1.5511   29.2304 C   0  0  0  0  0  0  0  0  0  0  0  0
  -14.9597    0.4672   28.4946 C   0  0  0  0  0  0  0  0  0  0  0  0
  -13.4183    2.4486   31.2512 C   0  0  0  0  0  0  0  0  0  0  0  0
  -13.9149    1.3777   30.5079 C   0  0  0  0  0  0  0  0  0  0  0  0
  -14.2298   -0.6304   28.2880 C   0  0  0  0  0  0  0  0  0  0  0  0
  -14.7667   -1.7132   27.5439 C   0  0  0  0  0  0  0  0  0  0  0  0
  -15.9544   -1.5222   26.9142 C   0  0  0  0  0  0  0  0  0  0  0  0
  -16.6765   -0.3449   27.0987 C   0  0  0  0  0  0  0  0  0  0  0  0
  -16.1576    0.6482   27.8612 C   0  0  0  0  0  0  0  0  0  0  0  0
  -15.3545    4.4451   27.2232 C   0  0  0  0  0  0  0  0  0  0  0  0
  -16.4194    4.7195   28.0929 C   0  0  0  0  0  0  0  0  0  0  0  0
  -17.1539    4.1176   28.5417 C   0  0  0  0  0  0  0  0  0  0  0  0
  -18.1808    4.4981   29.5192 C   0  0  0  0  0  0  0  0  0  0  0  0
  -19.0443    3.7086   30.2463 C   0  0  0  0  0  0  0  0  0  0  0  0
  3  4  1  0
  8  4  1  6
  8  9  1  0
  8 15  1  0
  8 16  1  0
 10 22  1  0
 16 22  1  0
 20 23  1  0
 27 28  1  0
 23 36  1  1
 36 37  1  0
 37 38  2  3
 38 39  1  0
 39 40  2  0
 23 24  1  0
 28 31  2  0
 31 32  1  0
 32 33  2  0
 33 34  1  0
 34 35  2  0
 35 28  1  0
 24 25  2  0
 25 26  1  0
 26 29  2  0
 29 30  1  0
 30 27  2  0
 27 24  1  0
 15 17  2  0
 17 20  1  0
 20 21  2  0
 21 19  1  0
 19 18  2  0
 18 15  1  0
  9 10  1  0
 10 11  2  0
 11 14  1  0
 14 13  2  0
 13 12  1  0
 12  9  2  0
  1  2  2  0
  2  5  1  0
  5  7  2  0
  7  6  1  0
  6  3  2  0
  3  1  1  0
M  END
$$$$
