No_8731-complexes_sdf/6BKW-FPZ/2024-09-17-14-21-01/
     RDKit          3D

 13 13  0  0  0  0  0  0  0  0999 V2000
   -7.9040    3.9820   27.1177 C   0  0  0  0  0  0  0  0  0  0  0  0
   -7.8663    4.8694   27.9238 C   0  0  0  0  0  0  0  0  0  0  0  0
   -9.0491    3.8523   26.2542 C   0  0  0  0  0  0  0  0  0  0  0  0
   -8.7661    5.9491   27.9690 C   0  0  0  0  0  0  0  0  0  0  0  0
   -9.9295    4.8502   26.2323 C   0  0  0  0  0  0  0  0  0  0  0  0
   -9.8077    5.9288   27.0933 C   0  0  0  0  0  0  0  0  0  0  0  0
   -7.0146    2.9513   27.1368 F   0  0  0  0  0  0  0  0  0  0  0  0
   -9.3217    2.6003   25.1145 Cl  0  0  0  0  0  0  0  0  0  0  0  0
  -10.8876    4.9772   25.4457 F   0  0  0  0  0  0  0  0  0  0  0  0
   -6.7550    5.0053   28.7789 O   0  0  0  0  0  0  0  0  0  0  0  0
   -5.5369    5.3933   28.2315 C   0  0  0  0  0  0  0  0  0  0  0  0
   -5.4872    6.4796   27.5670 O   0  0  0  0  0  0  0  0  0  0  0  0
   -4.6009    4.5403   28.2871 O   0  0  0  0  0  0  0  0  0  0  0  0
  1  7  1  0
  3  8  1  0
  5  9  1  0
  2 10  1  0
 10 11  1  0
 11 12  2  0
 11 13  1  0
  1  2  2  0
  2  4  1  0
  4  6  2  0
  6  5  1  0
  5  3  2  0
  3  1  1  0
M  END
$$$$
