No_8267-complexes_sdf/6BKW-FPZ/2024-09-17-14-21-01/
     RDKit          3D

 18 19  0  0  0  0  0  0  0  0999 V2000
   -7.7129    4.2099   27.0854 C   0  0  0  0  0  0  0  0  0  0  0  0
   -8.9133    4.4736   27.0998 C   0  0  2  0  0  0  0  0  0  0  0  0
   -9.7135    3.9633   26.0300 C   0  0  0  0  0  0  0  0  0  0  0  0
   -6.8420    4.9760   28.0851 C   0  0  0  0  0  0  0  0  0  0  0  0
   -9.6552    4.2399   24.9004 C   0  0  0  0  0  0  0  0  0  0  0  0
  -10.4285    3.7872   23.7716 C   0  0  0  0  0  0  0  0  0  0  0  0
  -10.3014    4.2743   22.4915 C   0  0  0  0  0  0  0  0  0  0  0  0
  -11.5658    3.0773   24.1133 C   0  0  0  0  0  0  0  0  0  0  0  0
  -11.7957    2.6922   25.4550 C   0  0  0  0  0  0  0  0  0  0  0  0
  -10.9260    3.1964   26.4587 C   0  0  0  0  0  0  0  0  0  0  0  0
   -9.4611    5.3379   28.0672 C   0  0  0  0  0  0  0  0  0  0  0  0
  -10.0823    3.3749   21.4216 C   0  0  0  0  0  0  0  0  0  0  0  0
   -9.8125    2.1166   21.7374 C   0  0  0  0  0  0  0  0  0  0  0  0
   -9.7091    1.0196   20.8034 C   0  0  0  0  0  0  0  0  0  0  0  0
   -9.4041   -0.2425   21.2890 C   0  0  0  0  0  0  0  0  0  0  0  0
   -9.2052   -0.4678   22.6788 C   0  0  0  0  0  0  0  0  0  0  0  0
   -9.2455    0.5093   23.5674 C   0  0  0  0  0  0  0  0  0  0  0  0
   -9.5097    1.8152   23.1648 C   0  0  0  0  0  0  0  0  0  0  0  0
  1  2  1  0
  2  3  1  0
  1  4  1  0
  6  7  1  0
  2 11  1  6
  7 12  1  0
 12 13  1  0
 13 14  2  0
 14 15  1  0
 15 16  2  0
 16 17  1  0
 17 18  2  0
 18 13  1  0
  3  5  2  0
  5  6  1  0
  6  8  2  0
  8  9  1  0
  9 10  2  0
 10  3  1  0
M  END
$$$$
