No_8647-complexes_sdf/6BKW-FPZ/2024-09-17-14-21-01/
     RDKit          3D

 40 46  0  0  0  0  0  0  0  0999 V2000
   -7.9040    3.9820   27.1177 C   0  0  0  0  0  0  0  0  0  0  0  0
   -7.8663    4.8694   27.9238 C   0  0  0  0  0  0  0  0  0  0  0  0
   -7.4698    2.6989   27.4277 C   0  0  0  0  0  0  0  0  0  0  0  0
   -7.9683    1.5964   26.8266 C   0  0  1  0  0  0  0  0  0  0  0  0
   -8.9447    1.7923   25.8533 C   0  0  0  0  0  0  0  0  0  0  0  0
   -9.4405    2.9988   25.5757 C   0  0  1  0  0  0  0  0  0  0  0  0
   -8.9424    4.1117   26.2388 C   0  0  0  0  0  0  0  0  0  0  0  0
   -8.2732    6.2141   27.6484 N   0  0  0  0  0  0  0  0  0  0  0  0
   -9.1540    6.5068   26.6734 C   0  0  0  0  0  0  0  0  0  0  0  0
   -9.5312    5.3927   25.9147 C   0  0  0  0  0  0  0  0  0  0  0  0
   -7.3926    0.2681   27.0981 C   0  0  0  0  0  0  0  0  0  0  0  0
   -6.0780    0.1119   27.4650 C   0  0  0  0  0  0  0  0  0  0  0  0
   -5.5514   -1.1190   27.8199 C   0  0  0  0  0  0  0  0  0  0  0  0
   -6.3961   -2.2031   27.7642 C   0  0  2  0  0  0  0  0  0  0  0  0
   -7.8115   -1.1315   27.1682 C   0  0  1  0  0  0  0  0  0  0  0  0
   -4.1442   -1.3013   28.3224 C   0  0  0  0  0  0  0  0  0  0  0  0
   -3.2209   -0.3457   27.9725 C   0  0  0  0  0  0  0  0  0  0  0  0
   -3.7612    0.9861   27.6211 C   0  0  0  0  0  0  0  0  0  0  0  0
   -5.0372    1.1941   27.3431 C   0  0  0  0  0  0  0  0  0  0  0  0
   -9.0946   -1.6571   26.9896 C   0  0  0  0  0  0  0  0  0  0  0  0
  -10.0675   -1.1984   27.7950 C   0  0  0  0  0  0  0  0  0  0  0  0
  -11.4341   -1.4781   27.6002 C   0  0  0  0  0  0  0  0  0  0  0  0
   -9.3242   -2.5512   26.0156 C   0  0  0  0  0  0  0  0  0  0  0  0
  -10.6767   -2.9331   25.7862 C   0  0  0  0  0  0  0  0  0  0  0  0
  -11.6937   -2.4077   26.6115 C   0  0  0  0  0  0  0  0  0  0  0  0
  -12.9277   -2.8155   26.3732 F   0  0  0  0  0  0  0  0  0  0  0  0
   -6.5946   -3.4205   28.0479 C   0  0  0  0  0  0  0  0  0  0  0  0
   -7.1327   -3.8766   29.1822 C   0  0  0  0  0  0  0  0  0  0  0  0
   -6.0572   -4.3287   27.1184 C   0  0  0  0  0  0  0  0  0  0  0  0
   -7.3392   -5.2189   29.4714 C   0  0  0  0  0  0  0  0  0  0  0  0
   -6.2259   -5.7415   27.3960 C   0  0  0  0  0  0  0  0  0  0  0  0
   -6.8232   -6.1447   28.5449 C   0  0  0  0  0  0  0  0  0  0  0  0
  -10.3973    3.0923   24.4556 C   0  0  0  0  0  0  0  0  0  0  0  0
  -10.1578    2.5708   23.2802 C   0  0  0  0  0  0  0  0  0  0  0  0
  -11.0273    2.7111   22.1946 C   0  0  0  0  0  0  0  0  0  0  0  0
  -12.0627    3.5968   22.2537 C   0  0  0  0  0  0  0  0  0  0  0  0
  -11.3042    4.1253   24.3310 C   0  0  0  0  0  0  0  0  0  0  0  0
  -12.1826    4.3683   23.3772 C   0  0  0  0  0  0  0  0  0  0  0  0
   -1.8613   -0.4404   28.4113 C   0  0  0  0  0  0  0  0  0  0  0  0
   -1.6768   -0.2737   29.6381 F   0  0  0  0  0  0  0  0  0  0  0  0
  1  3  1  0
  3  4  1  0
  4  5  1  0
  5  6  1  0
  6  7  1  0
  4 11  1  6
 11 15  1  0
 14 15  1  0
 15 20  1  1
 25 26  1  0
 14 27  1  1
  6 33  1  6
 17 39  1  0
 39 40  1  0
 11 12  1  0
 14 13  1  0
 27 28  2  0
 28 30  1  0
 30 32  2  0
 32 31  1  0
 31 29  2  0
 29 27  1  0
  1  2  2  0
  2  8  1  0
  8  9  2  0
  9 10  1  0
 10  7  2  0
  7  1  1  0
 20 21  2  0
 21 22  1  0
 22 25  2  0
 25 24  1  0
 24 23  2  0
 23 20  1  0
 33 34  2  0
 34 35  1  0
 35 36  2  0
 36 38  1  0
 38 37  2  0
 37 33  1  0
 12 13  1  0
 13 16  2  0
 16 17  1  0
 17 18  2  0
 18 19  1  0
 19 12  2  0
M  END
$$$$
