No_8242-complexes_sdf/6BKW-FPZ/2024-09-17-14-21-01/
     RDKit          3D

 22 25  0  0  0  0  0  0  0  0999 V2000
   -7.7129    4.2099   27.0854 C   0  0  0  0  0  0  0  0  0  0  0  0
   -7.7814    5.1722   27.8972 C   0  0  0  0  0  0  0  0  0  0  0  0
   -8.8776    3.8408   26.3416 C   0  0  0  0  0  0  0  0  0  0  0  0
   -8.9136    2.6330   25.5655 C   0  0  0  0  0  0  0  0  0  0  0  0
   -8.8361    6.1389   27.9032 C   0  0  0  0  0  0  0  0  0  0  0  0
   -9.9718    4.7048   26.3433 C   0  0  0  0  0  0  0  0  0  0  0  0
   -9.9027    5.6473   27.1351 C   0  0  0  0  0  0  0  0  0  0  0  0
   -8.2917    1.5448   26.1252 N   0  0  0  0  0  0  0  0  0  0  0  0
   -8.1213    0.3583   25.5344 C   0  0  0  0  0  0  0  0  0  0  0  0
   -8.7485    0.1045   24.5083 C   0  0  0  0  0  0  0  0  0  0  0  0
   -9.5236    2.4807   24.3958 C   0  0  0  0  0  0  0  0  0  0  0  0
   -9.4361    1.2455   23.7840 C   0  0  0  0  0  0  0  0  0  0  0  0
   -7.4307   -0.6981   26.3243 C   0  0  0  0  0  0  0  0  0  0  0  0
   -7.6931   -0.8546   27.6474 C   0  0  0  0  0  0  0  0  0  0  0  0
   -6.9110   -1.5950   28.5207 C   0  0  0  0  0  0  0  0  0  0  0  0
   -7.1210   -1.6221   29.9074 C   0  0  0  0  0  0  0  0  0  0  0  0
   -5.7906   -2.3013   27.9436 C   0  0  0  0  0  0  0  0  0  0  0  0
   -4.9980   -3.0939   28.7924 C   0  0  0  0  0  0  0  0  0  0  0  0
   -6.2935   -2.3976   30.7876 C   0  0  0  0  0  0  0  0  0  0  0  0
   -5.2118   -3.1129   30.1800 C   0  0  0  0  0  0  0  0  0  0  0  0
   -6.3425   -1.3598   25.6566 C   0  0  0  0  0  0  0  0  0  0  0  0
   -5.4508   -2.1618   26.5742 C   0  0  0  0  0  0  0  0  0  0  0  0
  3  4  1  0
  9 13  1  0
  4  8  2  0
  8  9  1  0
  9 10  2  0
 10 12  1  0
 12 11  2  0
 11  4  1  0
 13 14  2  0
 14 15  1  0
 17 22  1  0
 22 21  2  0
 21 13  1  0
  1  2  2  0
  2  5  1  0
  5  7  2  0
  7  6  1  0
  6  3  2  0
  3  1  1  0
 15 16  2  0
 16 19  1  0
 19 20  2  0
 20 18  1  0
 18 17  2  0
 17 15  1  0
M  END
$$$$
