No_8199-complexes_sdf/6BKW-FPZ/2024-09-17-14-21-01/
     RDKit          3D

 20 21  0  0  0  0  0  0  0  0999 V2000
   -7.9040    3.9820   27.1177 C   0  0  0  0  0  0  0  0  0  0  0  0
   -7.8663    4.8694   27.9238 C   0  0  0  0  0  0  0  0  0  0  0  0
   -9.0953    3.1697   27.0532 C   0  0  0  0  0  0  0  0  0  0  0  0
   -9.1405    2.0104   26.1761 C   0  0  0  0  0  0  0  0  0  0  0  0
   -6.7288    5.7941   27.9701 C   0  0  0  0  0  0  0  0  0  0  0  0
   -8.2649    0.9862   26.4894 C   0  0  0  0  0  0  0  0  0  0  0  0
   -8.6221   -0.1511   26.7771 C   0  0  0  0  0  0  0  0  0  0  0  0
  -10.1922    3.5326   27.8839 C   0  0  0  0  0  0  0  0  0  0  0  0
  -11.0099    4.0555   27.5325 C   0  0  2  0  0  0  0  0  0  0  0  0
   -7.6726   -1.2038   27.2189 C   0  0  0  0  0  0  0  0  0  0  0  0
   -6.3466   -0.8551   27.3623 C   0  0  0  0  0  0  0  0  0  0  0  0
   -5.9244    0.4689   27.1454 C   0  0  0  0  0  0  0  0  0  0  0  0
   -6.8388    1.4081   26.8024 C   0  0  0  0  0  0  0  0  0  0  0  0
  -12.3226    4.1928   28.3053 C   0  0  0  0  0  0  0  0  0  0  0  0
  -13.4235    4.8891   27.8046 C   0  0  0  0  0  0  0  0  0  0  0  0
  -14.5066    5.1323   28.5470 C   0  0  0  0  0  0  0  0  0  0  0  0
  -14.6502    4.5401   29.7985 C   0  0  0  0  0  0  0  0  0  0  0  0
  -13.6063    3.7312   30.2887 C   0  0  0  0  0  0  0  0  0  0  0  0
  -12.4550    3.5870   29.5813 C   0  0  0  0  0  0  0  0  0  0  0  0
  -11.1200    4.6700   26.1793 C   0  0  0  0  0  0  0  0  0  0  0  0
  1  2  2  3
  1  3  1  0
  3  4  1  0
  2  5  1  0
  4  6  1  0
  3  8  1  0
  8  9  1  0
  9 20  1  6
  9 14  1  0
 14 15  2  0
 15 16  1  0
 16 17  2  0
 17 18  1  0
 18 19  2  0
 19 14  1  0
  6  7  2  0
  7 10  1  0
 10 11  2  0
 11 12  1  0
 12 13  2  0
 13  6  1  0
M  END
$$$$
