No_8905-complexes_sdf/6BKW-FPZ/2024-09-17-14-21-01/
     RDKit          3D

 31 34  0  0  0  0  0  0  0  0999 V2000
   -7.7129    4.2099   27.0854 C   0  0  0  0  0  0  0  0  0  0  0  0
   -8.2112    3.0637   26.9225 C   0  0  0  0  0  0  0  0  0  0  0  0
   -8.5108    5.3904   26.9436 C   0  0  0  0  0  0  0  0  0  0  0  0
   -7.9752    6.6981   27.2112 C   0  0  0  0  0  0  0  0  0  0  0  0
   -9.5213    2.8208   26.4688 C   0  0  0  0  0  0  0  0  0  0  0  0
  -10.2979    3.9327   26.2378 C   0  0  0  0  0  0  0  0  0  0  0  0
   -9.7894    5.2123   26.4395 C   0  0  0  0  0  0  0  0  0  0  0  0
   -7.1925    1.6286   27.2384 Cl  0  0  0  0  0  0  0  0  0  0  0  0
   -8.6383    7.7856   26.8061 N   0  0  0  0  0  0  0  0  0  0  0  0
   -6.8476    6.7720   27.7982 O   0  0  0  0  0  0  0  0  0  0  0  0
   -9.9816    1.4247   26.2543 C   0  0  0  0  0  0  0  0  0  0  0  0
  -11.0803    1.1924   25.5032 C   0  0  0  0  0  0  0  0  0  0  0  0
  -11.5171   -0.1525   25.3527 C   0  0  0  0  0  0  0  0  0  0  0  0
  -10.8592   -1.1801   26.0710 C   0  0  0  0  0  0  0  0  0  0  0  0
   -9.7976   -0.9074   26.8810 C   0  0  0  0  0  0  0  0  0  0  0  0
   -9.3417    0.3492   27.0360 C   0  0  0  0  0  0  0  0  0  0  0  0
   -9.1927   -2.0152   27.6725 C   0  0  1  0  0  0  0  0  0  0  0  0
   -8.3521   -2.8512   26.9968 C   0  0  0  0  0  0  0  0  0  0  0  0
   -7.6816   -2.6059   26.0796 C   0  0  0  0  0  0  0  0  0  0  0  0
   -6.7071   -3.5553   25.4728 C   0  0  0  0  0  0  0  0  0  0  0  0
   -6.6226   -4.7728   26.0193 C   0  0  0  0  0  0  0  0  0  0  0  0
   -7.3776   -5.0680   27.0843 C   0  0  0  0  0  0  0  0  0  0  0  0
   -8.1910   -4.1752   27.7089 C   0  0  0  0  0  0  0  0  0  0  0  0
   -8.5963   -1.3342   28.8987 C   0  0  0  0  0  0  0  0  0  0  0  0
  -10.4477   -2.8542   28.2384 C   0  0  0  0  0  0  0  0  0  0  0  0
  -11.3483   -2.5580   28.7242 C   0  0  0  0  0  0  0  0  0  0  0  0
  -12.3870   -3.3377   29.3026 C   0  0  0  0  0  0  0  0  0  0  0  0
  -13.4836   -2.7815   29.9935 C   0  0  0  0  0  0  0  0  0  0  0  0
  -13.6163   -1.3571   30.0813 C   0  0  0  0  0  0  0  0  0  0  0  0
  -12.6870   -0.4782   29.5104 C   0  0  0  0  0  0  0  0  0  0  0  0
  -11.6589   -0.9806   28.9447 C   0  0  0  0  0  0  0  0  0  0  0  0
  3  4  1  0
  2  8  1  0
  4  9  1  0
  4 10  2  0
  5 11  1  0
 15 17  1  0
 17 18  1  0
 17 24  1  1
 17 25  1  0
 25 26  1  0
 18 19  2  0
 19 20  1  0
 20 21  2  0
 21 22  1  0
 22 23  2  0
 23 18  1  0
 11 12  2  0
 12 13  1  0
 13 14  2  0
 14 15  1  0
 15 16  2  0
 16 11  1  0
  1  2  2  0
  2  5  1  0
  5  6  2  0
  6  7  1  0
  7  3  2  0
  3  1  1  0
 26 27  2  0
 27 28  1  0
 28 29  2  0
 29 30  1  0
 30 31  2  0
 31 26  1  0
M  END
$$$$
