No_8178-complexes_sdf/6BKW-FPZ/2024-09-17-14-21-01/
     RDKit          3D

 13 13  0  0  0  0  0  0  0  0999 V2000
   -7.9040    3.9820   27.1177 C   0  0  0  0  0  0  0  0  0  0  0  0
   -8.2057    2.8231   26.8733 C   0  0  0  0  0  0  0  0  0  0  0  0
   -7.0130    4.3706   28.1140 C   0  0  0  0  0  0  0  0  0  0  0  0
   -7.3740    1.7588   27.2586 C   0  0  0  0  0  0  0  0  0  0  0  0
   -6.8741    5.7769   28.4526 C   0  0  0  0  0  0  0  0  0  0  0  0
   -6.1210    2.1432   27.9197 C   0  0  0  0  0  0  0  0  0  0  0  0
   -5.1311    1.1656   28.2335 C   0  0  0  0  0  0  0  0  0  0  0  0
   -5.9524    3.5221   28.3023 C   0  0  0  0  0  0  0  0  0  0  0  0
   -5.3389   -0.1898   28.1969 C   0  0  0  0  0  0  0  0  0  0  0  0
   -4.3845   -1.0581   28.5914 C   0  0  0  0  0  0  0  0  0  0  0  0
   -3.1463   -0.5768   29.0136 C   0  0  0  0  0  0  0  0  0  0  0  0
   -2.9124    0.7664   29.0207 C   0  0  0  0  0  0  0  0  0  0  0  0
   -3.8571    1.6163   28.6889 C   0  0  0  0  0  0  0  0  0  0  0  0
  1  2  1  0
  1  3  1  0
  2  4  1  0
  3  5  2  0
  4  6  1  0
  6  7  2  3
  3  8  1  0
  6  8  1  0
  7  9  1  0
  9 10  1  0
 10 11  2  3
 11 12  1  0
 12 13  2  0
M  END
$$$$
