No_8044-complexes_sdf/6BKW-FPZ/2024-09-17-14-21-01/
     RDKit          3D

 20 21  0  0  0  0  0  0  0  0999 V2000
   -7.7129    4.2099   27.0854 C   0  0  0  0  0  0  0  0  0  0  0  0
   -8.9133    4.4736   27.0998 C   0  0  0  0  0  0  0  0  0  0  0  0
   -9.4643    5.5426   27.7628 C   0  0  0  0  0  0  0  0  0  0  0  0
   -9.8091    3.6358   26.2841 C   0  0  0  0  0  0  0  0  0  0  0  0
   -9.4101    2.5938   25.7918 C   0  0  0  0  0  0  0  0  0  0  0  0
   -7.4685    2.9379   27.4575 C   0  0  0  0  0  0  0  0  0  0  0  0
   -8.1440    1.9755   26.5153 C   0  0  0  0  0  0  0  0  0  0  0  0
   -7.6695    0.6451   26.2865 C   0  0  0  0  0  0  0  0  0  0  0  0
   -7.7516    0.1606   25.2482 O   0  0  0  0  0  0  0  0  0  0  0  0
   -7.1811    0.0205   27.3454 O   0  0  0  0  0  0  0  0  0  0  0  0
   -7.2185   -1.3212   27.5084 C   0  0  2  0  0  0  0  0  0  0  0  0
   -8.3210   -1.8499   27.7643 C   0  0  0  0  0  0  0  0  0  0  0  0
   -8.3916   -3.0980   28.1632 C   0  0  0  0  0  0  0  0  0  0  0  0
   -9.6849   -3.7119   28.5664 C   0  0  0  0  0  0  0  0  0  0  0  0
  -10.8550   -2.9001   28.4761 C   0  0  0  0  0  0  0  0  0  0  0  0
  -10.8026   -1.5771   28.0695 C   0  0  0  0  0  0  0  0  0  0  0  0
   -9.5049   -1.0123   27.7742 C   0  0  0  0  0  0  0  0  0  0  0  0
   -5.9141   -1.8726   27.4997 C   0  0  0  0  0  0  0  0  0  0  0  0
   -5.4802   -2.6749   26.5603 C   0  0  0  0  0  0  0  0  0  0  0  0
   -4.1876   -3.2131   26.5401 C   0  0  0  0  0  0  0  0  0  0  0  0
  2  3  1  0
  7  8  1  0
  8  9  2  0
  8 10  1  0
 11 10  1  1
 11 12  1  0
 11 18  1  0
 18 19  2  3
 19 20  1  0
  1  2  2  0
  2  4  1  0
  4  5  2  0
  5  7  1  0
  7  6  2  0
  6  1  1  0
 12 13  2  0
 13 14  1  0
 14 15  2  0
 15 16  1  0
 16 17  2  0
 17 12  1  0
M  END
$$$$
