No_8734-complexes_sdf/6BKW-FPZ/2024-09-17-14-21-01/
     RDKit          3D

 40 43  0  0  0  0  0  0  0  0999 V2000
   -7.2496    3.8871   27.4508 C   0  0  0  0  0  0  0  0  0  0  0  0
   -7.6161    2.7143   27.1523 C   0  0  0  0  0  0  0  0  0  0  0  0
   -8.8302    2.4659   26.5056 C   0  0  0  0  0  0  0  0  0  0  0  0
   -8.1584    5.0090   27.3234 C   0  0  0  0  0  0  0  0  0  0  0  0
   -9.3788    4.7965   26.7695 C   0  0  0  0  0  0  0  0  0  0  0  0
   -9.7028    3.5649   26.3276 C   0  0  0  0  0  0  0  0  0  0  0  0
   -6.7190    1.5585   27.3667 C   0  0  0  0  0  0  0  0  0  0  0  0
   -7.0504    0.2135   27.2455 C   0  0  0  0  0  0  0  0  0  0  0  0
   -6.2345   -0.7674   27.5419 C   0  0  0  0  0  0  0  0  0  0  0  0
   -4.9557   -0.4544   28.0963 C   0  0  0  0  0  0  0  0  0  0  0  0
   -4.5769    0.8583   28.2784 C   0  0  0  0  0  0  0  0  0  0  0  0
   -5.4112    1.8384   27.9807 C   0  0  0  0  0  0  0  0  0  0  0  0
   -7.9129    6.3995   27.7839 C   0  0  0  0  0  0  0  0  0  0  0  0
   -7.7960    7.3420   27.0178 N   0  0  0  0  0  0  0  0  0  0  0  0
   -3.8937   -1.7730   28.5688 Cl  0  0  0  0  0  0  0  0  0  0  0  0
  -10.9887    3.3609   25.6138 C   0  0  0  0  0  0  0  0  0  0  0  0
  -11.0222    3.6364   24.2694 C   0  0  0  0  0  0  0  0  0  0  0  0
  -12.1521    3.8423   23.5835 C   0  0  0  0  0  0  0  0  0  0  0  0
  -12.0600    2.8335   26.2531 C   0  0  0  0  0  0  0  0  0  0  0  0
  -13.3397    2.9202   25.5405 C   0  0  0  0  0  0  0  0  0  0  0  0
  -12.1767    4.2600   22.2157 C   0  0  0  0  0  0  0  0  0  0  0  0
  -13.3725    3.4338   24.2038 C   0  0  0  0  0  0  0  0  0  0  0  0
  -10.8816    4.3651   21.7288 C   0  0  0  0  0  0  0  0  0  0  0  0
  -10.1966    3.3629   21.4281 C   0  0  0  0  0  0  0  0  0  0  0  0
  -10.2572    2.1868   22.0260 N   0  0  0  0  0  0  0  0  0  0  0  0
   -9.8672    1.0374   21.4333 C   0  0  0  0  0  0  0  0  0  0  0  0
  -10.3691   -0.0697   21.9204 C   0  0  0  0  0  0  0  0  0  0  0  0
   -9.7987   -1.0984   22.1844 C   0  0  0  0  0  0  0  0  0  0  0  0
   -8.3886   -1.2446   21.6502 C   0  0  0  0  0  0  0  0  0  0  0  0
   -7.5675   -1.6130   22.2628 C   0  0  2  0  0  0  0  0  0  0  0  0
   -6.6862   -1.3014   22.8607 C   0  0  0  0  0  0  0  0  0  0  0  0
   -5.8464   -1.2710   23.8970 N   0  0  0  0  0  0  0  0  0  0  0  0
   -9.5444    3.3728   20.2909 O   0  0  0  0  0  0  0  0  0  0  0  0
   -8.4461   -0.5071   20.3824 C   0  0  0  0  0  0  0  0  0  0  0  0
   -8.7910    0.8347   20.6027 C   0  0  0  0  0  0  0  0  0  0  0  0
   -6.9734   -3.0034   21.6136 C   0  0  0  0  0  0  0  0  0  0  0  0
   -7.2739   -3.5531   20.7238 C   0  0  0  0  0  0  0  0  0  0  0  0
   -6.7650   -4.8310   20.2491 C   0  0  0  0  0  0  0  0  0  0  0  0
   -5.7735   -5.3870   21.0141 C   0  0  0  0  0  0  0  0  0  0  0  0
   -5.2984   -4.8060   22.1255 C   0  0  0  0  0  0  0  0  0  0  0  0
  2  7  1  0
  4 13  1  0
 13 14  1  0
 10 15  1  0
  6 16  1  0
 18 21  1  0
 21 23  2  3
 23 24  1  0
 24 25  1  0
 25 26  1  0
 30 31  1  6
 31 32  3  0
 24 33  2  0
 30 36  1  0
 36 37  1  0
 37 38  2  3
 38 39  1  0
 39 40  2  0
 30 29  1  0
 26 27  2  0
 27 28  1  0
 28 29  2  0
 29 34  1  0
 34 35  2  0
 35 26  1  0
 16 17  2  0
 17 18  1  0
 18 22  2  0
 22 20  1  0
 20 19  2  0
 19 16  1  0
  1  2  2  0
  2  3  1  0
  3  6  2  0
  6  5  1  0
  5  4  2  0
  4  1  1  0
  7  8  2  0
  8  9  1  0
  9 10  2  0
 10 11  1  0
 11 12  2  0
 12  7  1  0
M  END
$$$$
