No_8881-complexes_sdf/6BKW-FPZ/2024-09-17-14-21-01/
     RDKit          3D

 35 39  0  0  0  0  0  0  0  0999 V2000
   -7.9040    3.9820   27.1177 C   0  0  0  0  0  0  0  0  0  0  0  0
   -9.0711    4.3164   27.0630 C   0  0  0  0  0  0  0  0  0  0  0  0
  -10.0395    3.8218   27.1938 C   0  0  0  0  0  0  0  0  0  0  0  0
   -7.6424    2.5858   27.3610 C   0  0  0  0  0  0  0  0  0  0  0  0
   -8.7646    1.7754   27.4263 C   0  0  0  0  0  0  0  0  0  0  0  0
  -11.4608    4.3331   27.1441 C   0  0  0  0  0  0  0  0  0  0  0  0
   -9.9810    2.3615   27.3942 C   0  0  0  0  0  0  0  0  0  0  0  0
   -6.2775    2.0267   27.4245 C   0  0  0  0  0  0  0  0  0  0  0  0
   -6.0062    0.6911   27.3251 C   0  0  0  0  0  0  0  0  0  0  0  0
   -4.7131    0.2571   27.5187 C   0  0  0  0  0  0  0  0  0  0  0  0
   -4.2348   -0.1132   28.3724 C   0  0  0  0  0  0  0  0  0  0  0  0
   -5.0108   -0.6578   29.4885 C   0  0  0  0  0  0  0  0  0  0  0  0
   -6.2732   -1.0561   29.1075 C   0  0  0  0  0  0  0  0  0  0  0  0
   -6.9635   -0.2234   27.7718 C   0  0  0  0  0  0  0  0  0  0  0  0
  -12.1764    4.1019   26.0203 C   0  0  0  0  0  0  0  0  0  0  0  0
  -11.6638    3.6591   24.8565 C   0  0  0  0  0  0  0  0  0  0  0  0
  -12.4110    3.5249   23.6659 C   0  0  0  0  0  0  0  0  0  0  0  0
  -11.7930    3.1285   22.4473 C   0  0  0  0  0  0  0  0  0  0  0  0
  -10.3996    2.9531   22.4248 C   0  0  0  0  0  0  0  0  0  0  0  0
   -9.6642    3.0811   23.6114 C   0  0  0  0  0  0  0  0  0  0  0  0
  -10.2360    3.4661   24.7337 C   0  0  0  0  0  0  0  0  0  0  0  0
  -11.1818    1.5131   27.5949 C   0  0  0  0  0  0  0  0  0  0  0  0
  -11.9239    1.7691   28.7055 C   0  0  0  0  0  0  0  0  0  0  0  0
  -13.1773    1.4684   28.7254 C   0  0  0  0  0  0  0  0  0  0  0  0
  -14.0529    1.8868   29.8487 C   0  0  0  0  0  0  0  0  0  0  0  0
  -13.4857    2.7745   30.7823 C   0  0  0  0  0  0  0  0  0  0  0  0
  -14.2888    3.2058   31.9066 C   0  0  0  0  0  0  0  0  0  0  0  0
  -13.5981    4.0646   32.8380 C   0  0  0  0  0  0  0  0  0  0  0  0
  -14.2070    4.6196   33.9841 C   0  0  0  0  0  0  0  0  0  0  0  0
  -15.5856    4.3485   34.1580 C   0  0  0  0  0  0  0  0  0  0  0  0
  -16.2234    3.5578   33.2375 C   0  0  0  0  0  0  0  0  0  0  0  0
  -15.6030    3.0382   32.1486 C   0  0  0  0  0  0  0  0  0  0  0  0
  -11.4359    0.4278   26.8140 C   0  0  0  0  0  0  0  0  0  0  0  0
  -12.7620    0.0154   26.7292 C   0  0  0  0  0  0  0  0  0  0  0  0
  -13.6333    0.4654   27.8043 C   0  0  0  0  0  0  0  0  0  0  0  0
  3  6  1  0
  4  8  1  0
  6 15  2  3
 15 16  1  0
  7 22  1  0
 24 25  1  0
 25 26  2  3
 26 27  1  0
  8  9  1  0
  9 10  2  0
 10 11  1  0
 11 12  2  0
 12 13  1  0
 13 14  2  0
 14  9  1  0
 27 28  2  0
 28 29  1  0
 29 30  2  0
 30 31  1  0
 31 32  2  0
 32 27  1  0
  1  2  2  0
  2  3  1  0
  3  7  2  0
  7  5  1  0
  5  4  2  0
  4  1  1  0
 22 23  2  0
 23 24  1  0
 24 35  2  0
 35 34  1  0
 34 33  2  0
 33 22  1  0
 16 17  2  0
 17 18  1  0
 18 19  2  0
 19 20  1  0
 20 21  2  0
 21 16  1  0
M  END
$$$$
