No_8378-complexes_sdf/6BKW-FPZ/2024-09-17-14-21-01/
     RDKit          3D

 19 21  0  0  0  0  0  0  0  0999 V2000
   -7.9040    3.9820   27.1177 C   0  0  0  0  0  0  0  0  0  0  0  0
   -7.8663    4.8694   27.9238 C   0  0  0  0  0  0  0  0  0  0  0  0
   -9.0491    3.8523   26.2542 C   0  0  0  0  0  0  0  0  0  0  0  0
   -8.7661    5.9491   27.9690 C   0  0  0  0  0  0  0  0  0  0  0  0
   -9.9295    4.8502   26.2323 C   0  0  0  0  0  0  0  0  0  0  0  0
   -9.8077    5.9288   27.0933 C   0  0  0  0  0  0  0  0  0  0  0  0
   -6.8002    2.6256   27.2024 Cl  0  0  0  0  0  0  0  0  0  0  0  0
   -9.1191    2.6984   25.2948 C   0  0  0  0  0  0  0  0  0  0  0  0
   -8.8971    1.4743   25.7014 C   0  0  0  0  0  0  0  0  0  0  0  0
   -9.6266    2.9744   24.0067 C   0  0  0  0  0  0  0  0  0  0  0  0
   -9.0747    0.3942   24.8526 C   0  0  0  0  0  0  0  0  0  0  0  0
   -9.8182    1.9251   23.1452 C   0  0  0  0  0  0  0  0  0  0  0  0
   -9.5139    0.6430   23.5294 C   0  0  0  0  0  0  0  0  0  0  0  0
   -9.7086   -0.4730   22.5591 C   0  0  0  0  0  0  0  0  0  0  0  0
   -8.7117   -1.2856   22.3131 C   0  0  0  0  0  0  0  0  0  0  0  0
   -8.7587   -2.2513   21.2565 C   0  0  0  0  0  0  0  0  0  0  0  0
   -9.8982   -2.2413   20.4239 C   0  0  0  0  0  0  0  0  0  0  0  0
  -10.8874   -1.3270   20.6491 C   0  0  0  0  0  0  0  0  0  0  0  0
  -10.7520   -0.3714   21.6313 C   0  0  0  0  0  0  0  0  0  0  0  0
  1  7  1  0
  3  8  1  0
 13 14  1  0
  8  9  2  0
  9 11  1  0
 11 13  2  0
 13 12  1  0
 12 10  2  0
 10  8  1  0
  1  2  2  0
  2  4  1  0
  4  6  2  0
  6  5  1  0
  5  3  2  0
  3  1  1  0
 14 15  2  0
 15 16  1  0
 16 17  2  0
 17 18  1  0
 18 19  2  0
 19 14  1  0
M  END
$$$$
