No_84-complexes_sdf/6BKW-FPZ/2024-09-17-14-21-01/
     RDKit          3D

 17 19  0  0  0  0  0  0  0  0999 V2000
   -7.2496    3.8871   27.4508 C   0  0  0  0  0  0  0  0  0  0  0  0
   -8.5096    4.0291   27.2770 C   0  0  0  0  0  0  0  0  0  0  0  0
   -9.3502    2.8685   26.8763 C   0  0  0  0  0  0  0  0  0  0  0  0
   -6.6288    2.5513   27.4938 C   0  0  0  0  0  0  0  0  0  0  0  0
   -7.4365    1.4714   27.2032 C   0  0  0  0  0  0  0  0  0  0  0  0
   -8.7772    1.6579   26.9338 C   0  0  0  0  0  0  0  0  0  0  0  0
   -9.1078    5.3660   27.2249 C   0  0  0  0  0  0  0  0  0  0  0  0
   -8.3028    6.6597   26.6528 Cl  0  0  0  0  0  0  0  0  0  0  0  0
   -6.8286    0.1434   27.2892 C   0  0  0  0  0  0  0  0  0  0  0  0
   -7.5044   -0.9467   27.4073 C   0  0  0  0  0  0  0  0  0  0  0  0
   -6.9105   -2.2229   27.5464 C   0  0  0  0  0  0  0  0  0  0  0  0
   -5.5250   -2.2645   27.4836 C   0  0  0  0  0  0  0  0  0  0  0  0
   -5.3587    0.0153   27.3434 C   0  0  0  0  0  0  0  0  0  0  0  0
   -4.7444   -1.1261   27.4131 C   0  0  0  0  0  0  0  0  0  0  0  0
  -10.5630    5.3256   26.8695 C   0  0  0  0  0  0  0  0  0  0  0  0
  -11.4578    4.2968   27.0397 C   0  0  0  0  0  0  0  0  0  0  0  0
  -10.7604    3.0040   27.0342 C   0  0  0  0  0  0  0  0  0  0  0  0
  7  8  1  0
  5  9  1  0
  1  2  2  0
  3  6  2  0
  6  5  1  0
  5  4  2  0
  4  1  1  0
  9 10  2  0
 10 11  1  0
 11 12  2  0
 12 14  1  0
 14 13  2  0
 13  9  1  0
  2  3  1  0
  3 17  1  0
 17 16  2  0
 16 15  1  0
 15  7  2  0
  7  2  1  0
M  END
$$$$
