No_8318-complexes_sdf/6BKW-FPZ/2024-09-17-14-21-01/
     RDKit          3D

 12 13  0  0  0  0  0  0  0  0999 V2000
   -7.7129    4.2099   27.0854 C   0  0  0  0  0  0  0  0  0  0  0  0
   -8.2112    3.0637   26.9225 C   0  0  0  0  0  0  0  0  0  0  0  0
   -7.5138    1.9223   27.4249 C   0  0  0  0  0  0  0  0  0  0  0  0
   -6.5434    4.4363   27.9024 C   0  0  0  0  0  0  0  0  0  0  0  0
   -8.0049    0.5813   27.2334 C   0  0  0  0  0  0  0  0  0  0  0  0
   -5.7469    3.2786   28.1492 C   0  0  0  0  0  0  0  0  0  0  0  0
   -6.2627    2.0260   27.9887 C   0  0  0  0  0  0  0  0  0  0  0  0
   -9.3729    0.4294   27.3091 C   0  0  0  0  0  0  0  0  0  0  0  0
  -10.2349    1.5801   27.2406 C   0  0  0  0  0  0  0  0  0  0  0  0
   -9.6671    2.8381   26.9129 C   0  0  0  0  0  0  0  0  0  0  0  0
  -10.5771    3.9684   26.8385 C   0  0  0  0  0  0  0  0  0  0  0  0
  -11.7892    3.9659   26.9739 C   0  0  0  0  0  0  0  0  0  0  0  0
 10 11  1  0
 11 12  2  0
  3  5  1  0
  5  8  2  0
  8  9  1  0
  9 10  2  0
 10  2  1  0
  1  2  2  0
  2  3  1  0
  3  7  2  0
  7  6  1  0
  6  4  2  0
  4  1  1  0
M  END
$$$$
