No_8880-complexes_sdf/6BKW-FPZ/2024-09-17-14-21-01/
     RDKit          3D

 15 16  0  0  0  0  0  0  0  0999 V2000
   -7.2496    3.8871   27.4508 C   0  0  0  0  0  0  0  0  0  0  0  0
   -8.5096    4.0291   27.2770 C   0  0  0  0  0  0  0  0  0  0  0  0
   -9.2677    5.1714   27.5773 C   0  0  0  0  0  0  0  0  0  0  0  0
   -6.5711    2.6400   27.2842 C   0  0  0  0  0  0  0  0  0  0  0  0
   -7.3283    1.5214   27.0582 C   0  0  0  0  0  0  0  0  0  0  0  0
   -8.6503    1.6822   26.7652 C   0  0  0  0  0  0  0  0  0  0  0  0
   -9.3200    2.8587   26.9882 C   0  0  0  0  0  0  0  0  0  0  0  0
   -8.4815    6.1960   27.7214 F   0  0  0  0  0  0  0  0  0  0  0  0
  -10.4584    5.2604   27.6126 F   0  0  0  0  0  0  0  0  0  0  0  0
   -6.6337    0.2605   26.8453 C   0  0  0  0  0  0  0  0  0  0  0  0
   -6.9117   -0.5846   25.9877 C   0  0  0  0  0  0  0  0  0  0  0  0
   -6.1580   -1.8107   25.8350 C   0  0  0  0  0  0  0  0  0  0  0  0
   -5.9568   -0.2467   28.0494 C   0  0  0  0  0  0  0  0  0  0  0  0
   -5.1925   -1.3993   28.0678 C   0  0  0  0  0  0  0  0  0  0  0  0
   -5.3568   -2.2041   26.9006 C   0  0  0  0  0  0  0  0  0  0  0  0
  3  8  1  0
  3  9  1  0
  5 10  1  0
  3  2  1  0
  1  2  2  0
  2  7  1  0
  7  6  2  0
  6  5  1  0
  5  4  2  0
  4  1  1  0
 10 11  2  0
 11 12  1  0
 12 15  2  0
 15 14  1  0
 14 13  2  0
 13 10  1  0
M  END
$$$$
