No_8150-complexes_sdf/6BKW-FPZ/2024-09-17-14-21-01/
     RDKit          3D

 26 29  0  0  0  0  0  0  0  0999 V2000
   -7.9040    3.9820   27.1177 C   0  0  0  0  0  0  0  0  0  0  0  0
   -9.0711    4.3164   27.0630 C   0  0  0  0  0  0  0  0  0  0  0  0
   -9.5182    5.5541   27.5777 C   0  0  0  0  0  0  0  0  0  0  0  0
   -6.9424    4.7983   27.8424 C   0  0  0  0  0  0  0  0  0  0  0  0
   -7.3526    5.9739   28.3909 C   0  0  0  0  0  0  0  0  0  0  0  0
   -8.6479    6.3742   28.2169 C   0  0  0  0  0  0  0  0  0  0  0  0
  -10.0621    3.4422   26.3345 C   0  0  0  0  0  0  0  0  0  0  0  0
   -9.6335    2.6185   25.4370 C   0  0  0  0  0  0  0  0  0  0  0  0
  -10.2933    1.9173   24.6164 C   0  0  0  0  0  0  0  0  0  0  0  0
  -11.6984    2.1399   24.5092 C   0  0  0  0  0  0  0  0  0  0  0  0
  -12.2140    3.1068   25.3838 C   0  0  0  0  0  0  0  0  0  0  0  0
  -11.4270    3.8596   26.2418 C   0  0  0  0  0  0  0  0  0  0  0  0
   -9.7520    0.8647   23.6786 C   0  0  0  0  0  0  0  0  0  0  0  0
   -8.6980    0.1581   24.1302 C   0  0  0  0  0  0  0  0  0  0  0  0
   -8.2360    0.3212   25.3692 C   0  0  0  0  0  0  0  0  0  0  0  0
   -8.4979    1.6799   26.0228 C   0  0  0  0  0  0  0  0  0  0  0  0
  -12.4646    1.3120   23.8017 C   0  0  2  0  0  0  0  0  0  0  0  0
  -12.6628    1.6600   22.4450 C   0  0  0  0  0  0  0  0  0  0  0  0
  -12.7107    0.7619   21.5175 C   0  0  0  0  0  0  0  0  0  0  0  0
  -12.6915    3.0305   22.0180 C   0  0  0  0  0  0  0  0  0  0  0  0
  -12.8407    1.0182   20.0950 C   0  0  0  0  0  0  0  0  0  0  0  0
  -12.8283    3.3711   20.6382 C   0  0  0  0  0  0  0  0  0  0  0  0
  -12.8972    2.3697   19.6867 C   0  0  0  0  0  0  0  0  0  0  0  0
  -13.2431    0.2768   24.3188 C   0  0  0  0  0  0  0  0  0  0  0  0
  -12.8785   -0.9313   24.1515 C   0  0  0  0  0  0  0  0  0  0  0  0
  -13.5700   -2.0318   24.7290 C   0  0  0  0  0  0  0  0  0  0  0  0
  2  7  1  0
 17 10  1  1
 17 18  1  0
 17 24  1  0
 24 25  2  3
 25 26  1  0
  9 13  2  0
 13 14  1  0
 14 15  2  0
 15 16  1  0
 16  8  2  0
  1  2  2  0
  2  3  1  0
  3  6  2  0
  6  5  1  0
  5  4  2  0
  4  1  1  0
 18 19  2  0
 19 21  1  0
 21 23  2  0
 23 22  1  0
 22 20  2  0
 20 18  1  0
  7  8  1  0
  8  9  1  0
  9 10  1  0
 10 11  2  0
 11 12  1  0
 12  7  2  0
M  END
$$$$
