No_8324-complexes_sdf/6BKW-FPZ/2024-09-17-14-21-01/
     RDKit          3D

 11 12  0  0  0  0  0  0  0  0999 V2000
   -7.7129    4.2099   27.0854 C   0  0  0  0  0  0  0  0  0  0  0  0
   -7.7814    5.1722   27.8972 C   0  0  0  0  0  0  0  0  0  0  0  0
   -8.8776    3.8408   26.3416 C   0  0  0  0  0  0  0  0  0  0  0  0
   -9.9844    4.6492   26.4743 C   0  0  0  0  0  0  0  0  0  0  0  0
   -8.8033    6.1375   27.8728 C   0  0  0  0  0  0  0  0  0  0  0  0
   -9.9554    5.8280   27.1737 C   0  0  0  0  0  0  0  0  0  0  0  0
   -8.8740    2.6184   25.5584 C   0  0  0  0  0  0  0  0  0  0  0  0
   -7.9830    1.3184   26.0427 Cl  0  0  0  0  0  0  0  0  0  0  0  0
   -9.6495    2.5055   24.3751 C   0  0  0  0  0  0  0  0  0  0  0  0
  -10.4768    3.4946   23.9685 C   0  0  0  0  0  0  0  0  0  0  0  0
  -10.7548    4.6350   25.0467 C   0  0  0  0  0  0  0  0  0  0  0  0
  7  8  1  0
  4 11  2  0
 11 10  1  0
 10  9  2  0
  9  7  1  0
  7  3  2  0
  1  2  2  0
  2  5  1  0
  5  6  2  0
  6  4  1  0
  4  3  1  0
  3  1  1  0
M  END
$$$$
