No_8720-complexes_sdf/6BKW-FPZ/2024-09-17-14-21-01/
     RDKit          3D

 22 24  0  0  0  0  0  0  0  0999 V2000
   -7.7129    4.2099   27.0854 C   0  0  0  0  0  0  0  0  0  0  0  0
   -8.2112    3.0637   26.9225 C   0  0  0  0  0  0  0  0  0  0  0  0
   -8.5108    5.3904   26.9436 C   0  0  0  0  0  0  0  0  0  0  0  0
   -9.7256    5.1955   26.3518 C   0  0  0  0  0  0  0  0  0  0  0  0
   -7.4704    1.8386   27.3272 C   0  0  0  0  0  0  0  0  0  0  0  0
   -9.4948    2.8714   26.4765 C   0  0  0  0  0  0  0  0  0  0  0  0
  -10.2383    3.9753   26.1836 C   0  0  0  0  0  0  0  0  0  0  0  0
   -6.1035    2.0086   27.7264 C   0  0  0  0  0  0  0  0  0  0  0  0
   -5.3074    0.7784   28.0497 C   0  0  0  0  0  0  0  0  0  0  0  0
   -5.9149   -0.4248   27.9338 C   0  0  0  0  0  0  0  0  0  0  0  0
   -7.8367    0.5098   27.2302 C   0  0  0  0  0  0  0  0  0  0  0  0
   -7.2023   -0.5327   27.6148 C   0  0  0  0  0  0  0  0  0  0  0  0
   -7.9491    6.7462   27.1591 C   0  0  0  0  0  0  0  0  0  0  0  0
   -8.6494    7.8344   26.8166 N   0  0  0  0  0  0  0  0  0  0  0  0
   -3.9159    1.0377   28.4856 C   0  0  0  0  0  0  0  0  0  0  0  0
   -3.0548    1.6491   27.6797 Cl  0  0  0  0  0  0  0  0  0  0  0  0
   -3.4808    0.3369   30.0180 Cl  0  0  0  0  0  0  0  0  0  0  0  0
   -7.0254    6.9094   28.0779 O   0  0  0  0  0  0  0  0  0  0  0  0
   -7.8401   -1.8515   27.5536 C   0  0  0  0  0  0  0  0  0  0  0  0
   -9.0399   -1.9572   27.4955 C   0  0  0  0  0  0  0  0  0  0  0  0
   -9.8422   -0.7394   27.1838 C   0  0  0  0  0  0  0  0  0  0  0  0
   -9.2921    0.4659   27.1797 C   0  0  0  0  0  0  0  0  0  0  0  0
  2  5  1  0
  3 13  1  0
 13 14  1  0
  9 15  1  0
 15 16  1  0
 15 17  1  0
 13 18  2  0
 12 19  2  0
 19 20  1  0
 20 21  2  0
 21 22  1  0
 22 11  2  0
  1  2  2  0
  2  6  1  0
  6  7  2  0
  7  4  1  0
  4  3  2  0
  3  1  1  0
  5  8  2  0
  8  9  1  0
  9 10  2  0
 10 12  1  0
 12 11  1  0
 11  5  1  0
M  END
$$$$
