No_8457-complexes_sdf/6BKW-FPZ/2024-09-17-14-21-01/
     RDKit          3D

 40 43  0  0  0  0  0  0  0  0999 V2000
   -7.2496    3.8871   27.4508 C   0  0  0  0  0  0  0  0  0  0  0  0
   -7.6161    2.7143   27.1523 C   0  0  0  0  0  0  0  0  0  0  0  0
   -8.6212    2.2239   26.4074 C   0  0  0  0  0  0  0  0  0  0  0  0
   -8.2540    4.9237   27.1711 C   0  0  0  0  0  0  0  0  0  0  0  0
   -9.3709    4.6018   26.4511 C   0  0  0  0  0  0  0  0  0  0  0  0
   -9.5922    3.3274   26.0949 C   0  0  0  0  0  0  0  0  0  0  0  0
   -7.9165    6.3279   27.5749 C   0  0  0  0  0  0  0  0  0  0  0  0
  -10.7701    2.9798   25.2771 C   0  0  0  0  0  0  0  0  0  0  0  0
  -11.8998    2.8738   25.7593 C   0  0  0  0  0  0  0  0  0  0  0  0
  -10.5621    2.8299   23.8440 C   0  0  0  0  0  0  0  0  0  0  0  0
  -11.5243    2.7219   22.9362 C   0  0  0  0  0  0  0  0  0  0  0  0
  -13.0837    2.7272   24.8936 C   0  0  0  0  0  0  0  0  0  0  0  0
  -12.8536    2.6444   23.5323 C   0  0  0  0  0  0  0  0  0  0  0  0
   -6.5301    1.5702   27.5033 C   0  0  0  0  0  0  0  0  0  0  0  0
   -5.2677    1.9219   28.0608 C   0  0  0  0  0  0  0  0  0  0  0  0
   -4.3670    0.9139   28.3881 C   0  0  0  0  0  0  0  0  0  0  0  0
   -4.7562   -0.4141   28.3621 C   0  0  0  0  0  0  0  0  0  0  0  0
   -6.0431   -0.7463   27.8676 C   0  0  0  0  0  0  0  0  0  0  0  0
   -6.9224    0.2525   27.4534 C   0  0  0  0  0  0  0  0  0  0  0  0
   -6.8518    6.6587   28.0285 N   0  0  0  0  0  0  0  0  0  0  0  0
   -8.8037    7.2899   27.1803 N   0  0  0  0  0  0  0  0  0  0  0  0
   -3.8440   -1.4742   28.8252 C   0  0  0  0  0  0  0  0  0  0  0  0
   -2.7958   -1.5274   28.5565 N   0  0  0  0  0  0  0  0  0  0  0  0
   -4.4329   -2.5753   29.3015 O   0  0  0  0  0  0  0  0  0  0  0  0
   -1.7711   -2.5660   28.9612 C   0  0  2  0  0  0  0  0  0  0  0  0
   -0.9759   -2.1425   29.9836 C   0  0  0  0  0  0  0  0  0  0  0  0
  -11.3629    2.6242   21.5360 C   0  0  0  0  0  0  0  0  0  0  0  0
  -11.9952    2.6882   20.6624 C   0  0  0  0  0  0  0  0  0  0  0  0
  -13.4186    2.9185   20.8778 C   0  0  0  0  0  0  0  0  0  0  0  0
  -13.8279    2.8366   22.3200 C   0  0  0  0  0  0  0  0  0  0  0  0
   -1.0501   -2.8463   27.8254 F   0  0  0  0  0  0  0  0  0  0  0  0
   -0.6538   -3.1495   31.0201 C   0  0  0  0  0  0  0  0  0  0  0  0
    0.0679   -2.7862   31.8221 F   0  0  0  0  0  0  0  0  0  0  0  0
   -1.8723   -3.4445   31.5768 F   0  0  0  0  0  0  0  0  0  0  0  0
   -0.2096   -4.2631   30.3789 F   0  0  0  0  0  0  0  0  0  0  0  0
   -1.4974   -1.0036   30.6722 F   0  0  0  0  0  0  0  0  0  0  0  0
    0.3294   -1.5748   29.5458 F   0  0  0  0  0  0  0  0  0  0  0  0
  -14.4444    2.7714   25.3923 C   0  0  0  0  0  0  0  0  0  0  0  0
  -15.0395    3.6535   25.7338 O   0  0  0  0  0  0  0  0  0  0  0  0
  -14.7416    1.5344   25.8022 O   0  0  0  0  0  0  0  0  0  0  0  0
  4  7  1  0
  6  8  1  0
  2 14  1  0
  7 20  2  0
  7 21  1  0
 17 22  1  0
 22 23  1  0
 22 24  2  0
 23 25  1  0
 25 26  1  0
 25 31  1  6
 26 32  1  0
 32 33  1  0
 32 34  1  0
 32 35  1  0
 26 36  1  0
 26 37  1  0
 12 38  1  0
 38 39  2  0
 38 40  1  0
 14 15  2  0
 15 16  1  0
 16 17  2  0
 17 18  1  0
 18 19  2  0
 19 14  1  0
  1  2  2  0
  2  3  1  0
  3  6  2  0
  6  5  1  0
  5  4  2  0
  4  1  1  0
  8  9  2  0
  9 12  1  0
 12 13  2  0
 11 10  2  0
 10  8  1  0
 11 13  1  0
 13 30  1  0
 30 29  2  0
 29 28  1  0
 28 27  2  0
 27 11  1  0
M  END
$$$$
