No_8203-complexes_sdf/6BKW-FPZ/2024-09-17-14-21-01/
     RDKit          3D

 18 19  0  0  0  0  0  0  0  0999 V2000
   -7.7129    4.2099   27.0854 C   0  0  0  0  0  0  0  0  0  0  0  0
   -8.2112    3.0637   26.9225 C   0  0  0  0  0  0  0  0  0  0  0  0
   -8.5108    5.3904   26.9436 C   0  0  0  0  0  0  0  0  0  0  0  0
   -9.7256    5.1955   26.3518 C   0  0  0  0  0  0  0  0  0  0  0  0
   -9.4995    2.8258   26.4878 C   0  0  0  0  0  0  0  0  0  0  0  0
  -10.2542    3.9691   26.2055 C   0  0  0  0  0  0  0  0  0  0  0  0
   -7.9135    6.7086   27.1885 C   0  0  0  0  0  0  0  0  0  0  0  0
   -7.5950    1.7068   27.2240 C   0  0  0  0  0  0  0  0  0  0  0  0
   -6.3800    1.8122   27.7277 O   0  0  0  0  0  0  0  0  0  0  0  0
   -8.0507    0.5123   26.9249 N   0  0  0  0  0  0  0  0  0  0  0  0
   -7.3078   -0.6598   27.2058 C   0  0  0  0  0  0  0  0  0  0  0  0
   -6.2167   -0.8420   27.2193 C   0  0  0  0  0  0  0  0  0  0  0  0
   -5.5238   -2.0624   27.4842 C   0  0  0  0  0  0  0  0  0  0  0  0
   -6.3390   -3.1723   27.6803 C   0  0  0  0  0  0  0  0  0  0  0  0
   -8.2416   -1.8033   27.3784 C   0  0  0  0  0  0  0  0  0  0  0  0
   -7.7080   -3.0177   27.6483 C   0  0  0  0  0  0  0  0  0  0  0  0
   -8.5727    7.8243   26.8058 N   0  0  0  0  0  0  0  0  0  0  0  0
   -6.8201    6.7800   27.8039 O   0  0  0  0  0  0  0  0  0  0  0  0
  3  7  1  0
  2  8  1  0
  8  9  2  0
  8 10  1  0
 10 11  1  0
  7 17  1  0
  7 18  2  0
 11 12  2  0
 12 13  1  0
 13 14  2  0
 14 16  1  0
 16 15  2  0
 15 11  1  0
  1  2  2  0
  2  5  1  0
  5  6  2  0
  6  4  1  0
  4  3  2  0
  3  1  1  0
M  END
$$$$
