No_8781-complexes_sdf/6BKW-FPZ/2024-09-17-14-21-01/
     RDKit          3D

  9  9  0  0  0  0  0  0  0  0999 V2000
   -7.7129    4.2099   27.0854 C   0  0  0  0  0  0  0  0  0  0  0  0
   -8.2112    3.0637   26.9225 C   0  0  0  0  0  0  0  0  0  0  0  0
   -8.5108    5.3904   26.9436 C   0  0  0  0  0  0  0  0  0  0  0  0
   -9.7256    5.1955   26.3518 C   0  0  0  0  0  0  0  0  0  0  0  0
   -7.4704    1.8386   27.3272 C   0  0  0  0  0  0  0  0  0  0  0  0
   -9.4956    2.7608   26.4620 C   0  0  0  0  0  0  0  0  0  0  0  0
  -10.2454    3.9392   26.1664 C   0  0  0  0  0  0  0  0  0  0  0  0
   -7.8406    0.5476   27.1772 C   0  0  0  0  0  0  0  0  0  0  0  0
   -9.2229    0.4611   26.6510 C   0  0  0  0  0  0  0  0  0  0  0  0
  2  5  1  0
  5  8  2  3
  8  9  1  0
  1  2  2  0
  2  6  1  0
  6  7  2  0
  7  4  1  0
  4  3  2  0
  3  1  1  0
M  END
$$$$
