No_8519-complexes_sdf/6BKW-FPZ/2024-09-17-14-21-01/
     RDKit          3D

 20 21  0  0  0  0  0  0  0  0999 V2000
   -7.2496    3.8871   27.4508 C   0  0  0  0  0  0  0  0  0  0  0  0
   -7.6161    2.7143   27.1523 C   0  0  0  0  0  0  0  0  0  0  0  0
   -8.6212    2.2239   26.4073 C   0  0  0  0  0  0  0  0  0  0  0  0
   -8.2540    4.9237   27.1711 C   0  0  0  0  0  0  0  0  0  0  0  0
   -8.0481    6.2918   27.4896 C   0  0  0  0  0  0  0  0  0  0  0  0
   -9.5812    3.2432   26.0960 C   0  0  0  0  0  0  0  0  0  0  0  0
   -9.3651    4.5697   26.4537 C   0  0  0  0  0  0  0  0  0  0  0  0
   -8.2354    7.2889   26.8277 N   0  0  0  0  0  0  0  0  0  0  0  0
   -8.8454    0.8560   26.0866 C   0  0  1  0  0  0  0  0  0  0  0  0
   -8.5971    0.4492   24.9255 C   0  0  0  0  0  0  0  0  0  0  0  0
   -8.4373   -0.8516   24.5113 C   0  0  0  0  0  0  0  0  0  0  0  0
   -8.1249   -1.2169   23.1408 C   0  0  0  0  0  0  0  0  0  0  0  0
   -8.1370   -0.1730   22.1481 C   0  0  0  0  0  0  0  0  0  0  0  0
   -8.4628    1.1055   22.5357 C   0  0  0  0  0  0  0  0  0  0  0  0
   -8.6804    1.4711   23.8324 C   0  0  0  0  0  0  0  0  0  0  0  0
   -9.1678   -0.0200   27.1998 C   0  0  0  0  0  0  0  0  0  0  0  0
  -10.0791    0.1052   27.9473 C   0  0  0  0  0  0  0  0  0  0  0  0
  -10.4971   -0.8241   28.9777 C   0  0  0  0  0  0  0  0  0  0  0  0
   -9.7753   -2.0361   29.0076 C   0  0  0  0  0  0  0  0  0  0  0  0
   -8.8127   -2.2043   28.3068 C   0  0  0  0  0  0  0  0  0  0  0  0
  4  5  1  0
  5  8  1  0
  9  3  1  1
  9 10  1  0
  9 16  1  0
 16 17  2  3
 17 18  1  0
 18 19  2  3
 19 20  1  0
  1  2  2  0
  2  3  1  0
  3  6  2  0
  6  7  1  0
  7  4  2  0
  4  1  1  0
 10 11  2  0
 11 12  1  0
 12 13  2  0
 13 14  1  0
 14 15  2  0
 15 10  1  0
M  END
$$$$
