No_8571-complexes_sdf/6BKW-FPZ/2024-09-17-14-21-01/
     RDKit          3D

 39 43  0  0  0  0  0  0  0  0999 V2000
   -7.7129    4.2099   27.0854 C   0  0  0  0  0  0  0  0  0  0  0  0
   -8.2112    3.0637   26.9225 C   0  0  0  0  0  0  0  0  0  0  0  0
   -7.5138    1.9223   27.4249 C   0  0  0  0  0  0  0  0  0  0  0  0
   -8.5309    5.4147   26.8151 C   0  0  0  0  0  0  0  0  0  0  0  0
   -9.6817    5.2393   26.1100 C   0  0  0  0  0  0  0  0  0  0  0  0
  -10.1032    3.9957   25.8534 C   0  0  0  0  0  0  0  0  0  0  0  0
   -9.4034    2.8430   26.2573 C   0  0  0  0  0  0  0  0  0  0  0  0
   -7.9625    0.5664   27.2655 C   0  0  0  0  0  0  0  0  0  0  0  0
   -9.2649    0.5125   26.5943 C   0  0  0  0  0  0  0  0  0  0  0  0
   -9.9476    1.5566   26.0984 C   0  0  0  0  0  0  0  0  0  0  0  0
   -7.9719    6.7766   27.0741 C   0  0  2  0  0  0  0  0  0  0  0  0
   -7.0335    6.8801   27.9324 N   0  0  0  0  0  0  0  0  0  0  0  0
   -8.5434    7.9520   26.5348 C   0  0  0  0  0  0  0  0  0  0  0  0
   -7.3582   -0.4535   27.7868 O   0  0  0  0  0  0  0  0  0  0  0  0
   -6.0395   -0.4183   28.0092 C   0  0  0  0  0  0  0  0  0  0  0  0
   -5.1685    0.2879   27.3903 C   0  0  0  0  0  0  0  0  0  0  0  0
   -3.7650    0.2811   27.6671 C   0  0  0  0  0  0  0  0  0  0  0  0
   -3.2821   -0.5719   28.6305 C   0  0  0  0  0  0  0  0  0  0  0  0
   -5.4470   -1.3465   28.9896 C   0  0  0  0  0  0  0  0  0  0  0  0
   -4.1776   -1.3625   29.3243 C   0  0  0  0  0  0  0  0  0  0  0  0
   -2.9007    1.0846   26.9926 F   0  0  0  0  0  0  0  0  0  0  0  0
   -6.3957   -2.0598   29.7470 O   0  0  0  0  0  0  0  0  0  0  0  0
   -6.0234   -2.2866   30.9882 C   0  0  0  0  0  0  0  0  0  0  0  0
   -6.7641   -3.2297   31.5200 C   0  0  0  0  0  0  0  0  0  0  0  0
   -6.5574   -3.5367   32.9492 C   0  0  0  0  0  0  0  0  0  0  0  0
   -5.6621   -2.7775   33.7310 C   0  0  0  0  0  0  0  0  0  0  0  0
   -4.9746   -1.7279   33.0346 C   0  0  0  0  0  0  0  0  0  0  0  0
   -5.1920   -1.4365   31.7538 C   0  0  0  0  0  0  0  0  0  0  0  0
   -3.9704   -0.9375   33.8492 C   0  0  0  0  0  0  0  0  0  0  0  0
   -3.7624   -1.0119   35.1146 N   0  0  0  0  0  0  0  0  0  0  0  0
   -2.9551   -0.4973   33.1148 O   0  0  0  0  0  0  0  0  0  0  0  0
   -2.7761   -0.3110   35.8643 C   0  0  0  0  0  0  0  0  0  0  0  0
   -3.1547    0.0949   37.1454 C   0  0  0  0  0  0  0  0  0  0  0  0
   -2.6465    1.0396   37.8391 C   0  0  0  0  0  0  0  0  0  0  0  0
   -3.2445    1.5643   39.0537 C   0  0  0  0  0  0  0  0  0  0  0  0
   -4.4216    0.9877   39.5401 C   0  0  0  0  0  0  0  0  0  0  0  0
   -4.4723   -0.3341   37.7399 C   0  0  0  0  0  0  0  0  0  0  0  0
   -5.0358    0.0632   38.8138 C   0  0  0  0  0  0  0  0  0  0  0  0
   -1.6535   -0.1977   35.4882 O   0  0  0  0  0  0  0  0  0  0  0  0
  4 11  1  0
 11 12  1  0
 11 13  1  1
  8 14  1  0
 14 15  1  0
 17 21  1  0
 19 22  1  0
 22 23  1  0
 27 29  1  0
 29 30  1  0
 29 31  2  0
 30 32  1  0
 32 33  1  0
 32 39  2  0
 23 24  2  0
 24 25  1  0
 25 26  2  0
 26 27  1  0
 27 28  2  0
 28 23  1  0
  1  2  2  0
  7  6  2  0
  6  5  1  0
  5  4  2  0
  4  1  1  0
 33 34  2  0
 34 35  1  0
 35 36  2  0
 36 38  1  0
 38 37  2  0
 37 33  1  0
  2  3  1  0
  3  8  2  0
  8  9  1  0
  9 10  2  0
 10  7  1  0
  7  2  1  0
 15 16  2  0
 16 17  1  0
 17 18  2  0
 18 20  1  0
 20 19  2  0
 19 15  1  0
M  END
$$$$
