No_8-complexes_sdf/6BKW-FPZ/2024-09-17-14-21-01/
     RDKit          3D

 18 19  0  0  0  0  0  0  0  0999 V2000
   -7.9040    3.9820   27.1177 C   0  0  0  0  0  0  0  0  0  0  0  0
   -7.8663    4.8694   27.9238 C   0  0  0  0  0  0  0  0  0  0  0  0
   -9.0501    3.8017   26.2617 C   0  0  0  0  0  0  0  0  0  0  0  0
   -9.1826    2.7026   25.3575 C   0  0  0  0  0  0  0  0  0  0  0  0
   -8.6940    6.0131   27.8614 C   0  0  0  0  0  0  0  0  0  0  0  0
   -9.9755    4.8547   26.2361 C   0  0  0  0  0  0  0  0  0  0  0  0
   -9.7463    5.9398   27.0364 C   0  0  0  0  0  0  0  0  0  0  0  0
   -8.7003    1.4603   25.7663 C   0  0  0  0  0  0  0  0  0  0  0  0
   -9.8809    2.8005   24.1386 C   0  0  0  0  0  0  0  0  0  0  0  0
   -8.6915    0.3746   24.9240 C   0  0  0  0  0  0  0  0  0  0  0  0
   -9.9603    1.6968   23.3097 C   0  0  0  0  0  0  0  0  0  0  0  0
   -9.3540    0.4893   23.7318 C   0  0  0  0  0  0  0  0  0  0  0  0
   -9.4427   -0.6706   22.7744 C   0  0  0  0  0  0  0  0  0  0  0  0
   -8.3529   -1.3267   22.5131 C   0  0  0  0  0  0  0  0  0  0  0  0
   -8.3443   -2.4689   21.5904 C   0  0  0  0  0  0  0  0  0  0  0  0
   -7.1890   -3.1935   21.3592 C   0  0  0  0  0  0  0  0  0  0  0  0
   -5.9730   -2.8177   21.9651 C   0  0  0  0  0  0  0  0  0  0  0  0
   -5.9322   -1.7391   22.7749 C   0  0  0  0  0  0  0  0  0  0  0  0
  3  4  1  0
 12 13  1  0
 13 14  2  3
 14 15  1  0
 15 16  2  3
 16 17  1  0
 17 18  2  0
  4  8  2  0
  8 10  1  0
 10 12  2  0
 12 11  1  0
 11  9  2  0
  9  4  1  0
  1  2  2  0
  2  5  1  0
  5  7  2  0
  7  6  1  0
  6  3  2  0
  3  1  1  0
M  END
$$$$
