No_8653-complexes_sdf/6BKW-FPZ/2024-09-17-14-21-01/
     RDKit          3D

 19 20  0  0  0  0  0  0  0  0999 V2000
   -7.2496    3.8871   27.4508 C   0  0  0  0  0  0  0  0  0  0  0  0
   -7.9379    4.9063   27.8518 C   0  0  0  0  0  0  0  0  0  0  0  0
   -9.3460    4.8223   27.8695 C   0  0  0  0  0  0  0  0  0  0  0  0
   -7.8628    2.6163   27.1065 C   0  0  0  0  0  0  0  0  0  0  0  0
   -7.1773    1.4959   26.7593 C   0  0  0  0  0  0  0  0  0  0  0  0
   -9.2781    2.5892   27.1482 C   0  0  0  0  0  0  0  0  0  0  0  0
  -10.0064    3.6800   27.5696 C   0  0  0  0  0  0  0  0  0  0  0  0
   -6.0993    1.0767   27.6157 C   0  0  0  0  0  0  0  0  0  0  0  0
   -5.4005   -0.0827   27.4577 C   0  0  0  0  0  0  0  0  0  0  0  0
   -5.8928   -0.9494   26.5281 C   0  0  0  0  0  0  0  0  0  0  0  0
   -7.5963    0.4550   25.9790 C   0  0  0  0  0  0  0  0  0  0  0  0
   -6.9812   -0.6511   25.7444 C   0  0  0  0  0  0  0  0  0  0  0  0
   -4.2234   -0.4427   28.1610 C   0  0  0  0  0  0  0  0  0  0  0  0
   -3.9503   -0.0805   29.3022 O   0  0  0  0  0  0  0  0  0  0  0  0
   -3.3796   -1.2223   27.6296 O   0  0  0  0  0  0  0  0  0  0  0  0
   -7.2063    6.4420   28.1860 Cl  0  0  0  0  0  0  0  0  0  0  0  0
   -3.1174   -0.6487   30.2279 C   0  0  0  0  0  0  0  0  0  0  0  0
   -2.3983   -1.5528   29.8972 C   0  0  0  0  0  0  0  0  0  0  0  0
   -1.5431   -2.3129   30.7116 C   0  0  0  0  0  0  0  0  0  0  0  0
  4  5  1  0
  9 13  1  0
 13 14  1  0
 13 15  2  0
  2 16  1  0
 14 17  1  0
 17 18  2  3
 18 19  1  0
  5  8  2  0
  8  9  1  0
  9 10  2  0
 10 12  1  0
 12 11  2  0
 11  5  1  0
  1  2  2  0
  2  3  1  0
  3  7  2  0
  7  6  1  0
  6  4  2  0
  4  1  1  0
M  END
$$$$
