No_8055-complexes_sdf/6BKW-FPZ/2024-09-17-14-21-01/
     RDKit          3D

 21 22  0  0  0  0  0  0  0  0999 V2000
   -7.2496    3.8871   27.4508 C   0  0  0  0  0  0  0  0  0  0  0  0
   -7.9379    4.9063   27.8518 C   0  0  0  0  0  0  0  0  0  0  0  0
   -7.4895    6.2027   27.7481 C   0  0  0  0  0  0  0  0  0  0  0  0
   -7.8057    2.6324   27.3137 C   0  0  0  0  0  0  0  0  0  0  0  0
   -9.1872    2.4678   27.5434 C   0  0  0  0  0  0  0  0  0  0  0  0
   -9.9237    3.5447   27.9999 C   0  0  0  0  0  0  0  0  0  0  0  0
   -9.3832    4.8080   28.1012 C   0  0  0  0  0  0  0  0  0  0  0  0
  -11.3676    3.2981   28.3203 C   0  0  0  0  0  0  0  0  0  0  0  0
  -12.2299    3.2661   27.4132 C   0  0  0  0  0  0  0  0  0  0  0  0
  -13.6571    3.0743   27.7503 C   0  0  0  0  0  0  0  0  0  0  0  0
  -14.0244    3.0220   29.0971 C   0  0  0  0  0  0  0  0  0  0  0  0
  -13.0517    3.0482   30.0769 C   0  0  0  0  0  0  0  0  0  0  0  0
  -11.7120    3.1711   29.7890 C   0  0  0  0  0  0  0  0  0  0  0  0
   -7.0193    1.1638   26.9273 Cl  0  0  0  0  0  0  0  0  0  0  0  0
  -13.5149    2.9576   31.7451 Cl  0  0  0  0  0  0  0  0  0  0  0  0
   -7.9039    7.3720   27.2892 N   0  0  0  0  0  0  0  0  0  0  0  0
   -9.0855    7.3210   26.5576 C   0  0  0  0  0  0  0  0  0  0  0  0
  -14.6067    3.1114   26.7947 O   0  0  0  0  0  0  0  0  0  0  0  0
  -14.3588    3.3532   25.5851 C   0  0  0  0  0  0  0  0  0  0  0  0
  -14.0880    4.0611   24.8612 C   0  0  0  0  0  0  0  0  0  0  0  0
  -13.7824    4.1221   23.4685 C   0  0  0  0  0  0  0  0  0  0  0  0
  2  3  1  0
  6  8  1  0
  4 14  1  0
 12 15  1  0
  3 16  1  0
 16 17  1  0
 10 18  1  0
 18 19  1  0
 19 20  2  3
 20 21  1  0
  1  2  2  0
  2  7  1  0
  7  6  2  0
  6  5  1  0
  5  4  2  0
  4  1  1  0
  8  9  2  0
  9 10  1  0
 10 11  2  0
 11 12  1  0
 12 13  2  0
 13  8  1  0
M  END
$$$$
