No_8633-complexes_sdf/6BKW-FPZ/2024-09-17-14-21-01/
     RDKit          3D

 36 39  0  0  0  0  0  0  0  0999 V2000
   -7.9040    3.9820   27.1177 C   0  0  0  0  0  0  0  0  0  0  0  0
   -8.2057    2.8231   26.8733 C   0  0  0  0  0  0  0  0  0  0  0  0
   -8.7695    5.0740   26.7916 C   0  0  0  0  0  0  0  0  0  0  0  0
   -8.4337    6.4678   27.0913 C   0  0  0  0  0  0  0  0  0  0  0  0
   -9.3742    2.4311   26.2346 C   0  0  0  0  0  0  0  0  0  0  0  0
  -10.2395    3.4267   25.8887 C   0  0  0  0  0  0  0  0  0  0  0  0
   -9.9567    4.7548   26.1374 C   0  0  0  0  0  0  0  0  0  0  0  0
   -7.9449    7.5014   26.9590 N   0  0  0  0  0  0  0  0  0  0  0  0
   -7.4536    1.5358   27.2327 C   0  0  0  0  0  0  0  0  0  0  0  0
   -6.3110    1.7895   27.8512 O   0  0  0  0  0  0  0  0  0  0  0  0
   -7.7358    0.3484   26.9468 N   0  0  0  0  0  0  0  0  0  0  0  0
   -8.8410   -0.1098   26.2940 C   0  0  2  0  0  0  0  0  0  0  0  0
   -9.7348    1.0287   25.9451 C   0  0  0  0  0  0  0  0  0  0  0  0
   -9.1415   -1.4029   26.0622 C   0  0  0  0  0  0  0  0  0  0  0  0
   -9.3060   -2.2224   26.8135 C   0  0  0  0  0  0  0  0  0  0  0  0
   -9.5322   -3.0944   27.3533 C   0  0  0  0  0  0  0  0  0  0  0  0
   -9.1868   -1.6868   24.5863 C   0  0  0  0  0  0  0  0  0  0  0  0
   -9.0517   -0.8024   23.6299 C   0  0  0  0  0  0  0  0  0  0  0  0
   -8.7794    0.2129   23.5149 C   0  0  0  0  0  0  0  0  0  0  0  0
   -8.6446    1.0474   22.2119 C   0  0  0  0  0  0  0  0  0  0  0  0
   -9.4439   -3.7838   28.4788 N   0  0  0  0  0  0  0  0  0  0  0  0
   -9.1188   -1.2862   22.1471 C   0  0  0  0  0  0  0  0  0  0  0  0
   -9.1439   -0.7331   21.0664 C   0  0  0  0  0  0  0  0  0  0  0  0
   -8.8536    0.5931   21.0924 C   0  0  0  0  0  0  0  0  0  0  0  0
   -8.8166   -3.1614   29.4448 C   0  0  0  0  0  0  0  0  0  0  0  0
   -8.8527   -3.6349   30.7073 F   0  0  0  0  0  0  0  0  0  0  0  0
   -7.4240   -3.1345   29.2542 F   0  0  0  0  0  0  0  0  0  0  0  0
   -9.2394   -1.8964   29.6050 F   0  0  0  0  0  0  0  0  0  0  0  0
   -9.2188   -2.9418   24.3036 O   0  0  0  0  0  0  0  0  0  0  0  0
  -11.4834    3.1980   25.1048 C   0  0  0  0  0  0  0  0  0  0  0  0
  -12.6236    3.1627   25.8016 C   0  0  0  0  0  0  0  0  0  0  0  0
  -13.8328    2.9421   25.2426 C   0  0  0  0  0  0  0  0  0  0  0  0
  -11.4872    2.8896   23.7860 C   0  0  0  0  0  0  0  0  0  0  0  0
  -12.6070    2.6215   23.0865 C   0  0  0  0  0  0  0  0  0  0  0  0
  -13.8099    2.6702   23.8304 C   0  0  0  0  0  0  0  0  0  0  0  0
  -14.9595    2.4186   23.1361 O   0  0  0  0  0  0  0  0  0  0  0  0
  3  4  1  0
  4  8  3  0
  2  9  1  0
  9 10  2  0
  9 11  1  0
 11 12  1  0
  5 13  1  0
 12 13  1  1
 12 14  1  0
 14 15  2  3
 15 16  1  0
 14 17  1  0
 17 18  1  0
 16 21  1  0
 21 25  1  0
 25 26  1  0
 25 27  1  0
 25 28  1  0
 17 29  2  0
  6 30  1  0
 35 36  1  0
 18 19  2  0
 19 20  1  0
 20 24  2  0
 24 23  1  0
 23 22  2  0
 22 18  1  0
  1  2  2  0
  2  5  1  0
  5  6  2  0
  6  7  1  0
  7  3  2  0
  3  1  1  0
 30 31  2  0
 31 32  1  0
 32 35  2  0
 35 34  1  0
 34 33  2  0
 33 30  1  0
M  END
$$$$
