No_815-complexes_sdf/6BKW-FPZ/2024-09-17-14-21-01/
     RDKit          3D

 24 26  0  0  0  0  0  0  0  0999 V2000
   -7.2496    3.8871   27.4508 C   0  0  0  0  0  0  0  0  0  0  0  0
   -7.9379    4.9063   27.8518 C   0  0  0  0  0  0  0  0  0  0  0  0
   -7.5112    6.1898   27.6280 C   0  0  0  0  0  0  0  0  0  0  0  0
   -7.8078    2.6331   27.2522 C   0  0  0  0  0  0  0  0  0  0  0  0
   -9.1846    2.4724   27.5426 C   0  0  0  0  0  0  0  0  0  0  0  0
   -9.9168    3.5155   28.0405 C   0  0  0  0  0  0  0  0  0  0  0  0
   -9.3366    4.7963   28.1727 C   0  0  0  0  0  0  0  0  0  0  0  0
  -11.3249    3.2653   28.4083 C   0  0  0  0  0  0  0  0  0  0  0  0
  -12.2269    3.2385   27.5161 C   0  0  0  0  0  0  0  0  0  0  0  0
  -12.1946    3.2627   26.3216 C   0  0  0  0  0  0  0  0  0  0  0  0
  -13.3014    3.4257   25.4176 C   0  0  0  0  0  0  0  0  0  0  0  0
  -14.5694    3.4338   26.0089 C   0  0  0  0  0  0  0  0  0  0  0  0
  -13.7135    3.3843   28.0308 C   0  0  0  0  0  0  0  0  0  0  0  0
  -14.7765    3.4669   27.2757 C   0  0  0  0  0  0  0  0  0  0  0  0
   -7.0514    1.4412   26.8653 C   0  0  0  0  0  0  0  0  0  0  0  0
   -5.9739    0.9576   27.7114 C   0  0  0  0  0  0  0  0  0  0  0  0
   -5.2871   -0.1978   27.5120 C   0  0  0  0  0  0  0  0  0  0  0  0
   -5.7504   -0.9817   26.4643 C   0  0  0  0  0  0  0  0  0  0  0  0
   -7.4954    0.4780   25.9930 C   0  0  0  0  0  0  0  0  0  0  0  0
   -6.8442   -0.6352   25.7085 C   0  0  0  0  0  0  0  0  0  0  0  0
   -4.1043   -0.5269   28.3150 C   0  0  0  0  0  0  0  0  0  0  0  0
   -3.7380    0.2949   28.7912 F   0  0  0  0  0  0  0  0  0  0  0  0
   -4.5919   -1.4109   29.2698 F   0  0  0  0  0  0  0  0  0  0  0  0
   -3.3898   -1.2773   27.4752 F   0  0  0  0  0  0  0  0  0  0  0  0
  6  8  1  0
  8  9  1  0
  4 15  1  0
 17 21  1  0
 21 22  1  0
 21 23  1  0
 21 24  1  0
  3  2  1  0
 15 16  2  0
 16 17  1  0
 17 18  2  0
 18 20  1  0
 20 19  2  0
 19 15  1  0
  1  2  2  0
  2  7  1  0
  7  6  2  0
  6  5  1  0
  5  4  2  0
  4  1  1  0
  9 10  2  0
 10 11  1  0
 11 12  2  0
 12 14  1  0
 14 13  2  0
 13  9  1  0
M  END
$$$$
