No_8236-complexes_sdf/6BKW-FPZ/2024-09-17-14-21-01/
     RDKit          3D

 15 15  0  0  0  0  0  0  0  0999 V2000
   -7.2496    3.8871   27.4508 C   0  0  0  0  0  0  0  0  0  0  0  0
   -8.5096    4.0291   27.2770 C   0  0  2  0  0  0  0  0  0  0  0  0
   -9.3451    2.8786   26.9046 C   0  0  0  0  0  0  0  0  0  0  0  0
   -6.6065    2.5680   27.5073 C   0  0  0  0  0  0  0  0  0  0  0  0
   -7.3970    1.4834   27.2271 C   0  0  2  0  0  0  0  0  0  0  0  0
   -8.7029    1.6398   26.9934 C   0  0  0  0  0  0  0  0  0  0  0  0
   -9.0760    5.2776   27.2180 N   0  0  0  0  0  0  0  0  0  0  0  0
   -8.8186    6.3288   27.0609 C   0  0  0  0  0  0  0  0  0  0  0  0
   -7.6694    6.7243   26.3376 C   0  0  0  0  0  0  0  0  0  0  0  0
  -10.6521    5.1171   27.4809 C   0  0  0  0  0  0  0  0  0  0  0  0
   -5.3076    2.4914   27.8017 O   0  0  0  0  0  0  0  0  0  0  0  0
   -9.3682    7.4006   27.5836 O   0  0  0  0  0  0  0  0  0  0  0  0
   -6.7285    0.1762   27.2681 C   0  0  0  0  0  0  0  0  0  0  0  0
   -7.1509   -0.8431   26.6286 C   0  0  0  0  0  0  0  0  0  0  0  0
   -8.4275   -0.7354   25.9068 C   0  0  0  0  0  0  0  0  0  0  0  0
  1  2  1  0
  1  4  1  0
  4  5  1  0
  3  6  1  0
  2  7  1  6
  7  8  1  0
  8  9  1  0
  7 10  1  0
  4 11  2  0
  8 12  2  0
  5 13  1  0
 13 14  2  3
 14 15  1  0
  2  3  1  0
  5  6  1  1
M  END
$$$$
