No_8361-complexes_sdf/6BKW-FPZ/2024-09-17-14-21-01/
     RDKit          3D

 26 28  0  0  0  0  0  0  0  0999 V2000
   -7.7129    4.2099   27.0854 C   0  0  0  0  0  0  0  0  0  0  0  0
   -7.7814    5.1722   27.8972 C   0  0  0  0  0  0  0  0  0  0  0  0
   -7.2983    2.9533   27.5684 C   0  0  0  0  0  0  0  0  0  0  0  0
   -6.9398    2.0472   26.9820 C   0  0  0  0  0  0  0  0  0  0  0  0
   -7.4684    0.9067   27.0012 C   0  0  0  0  0  0  0  0  0  0  0  0
   -8.8664    0.7608   26.9916 C   0  0  0  0  0  0  0  0  0  0  0  0
   -8.0641    6.5317   27.4540 C   0  0  0  0  0  0  0  0  0  0  0  0
   -8.9168    6.7754   26.3211 C   0  0  0  0  0  0  0  0  0  0  0  0
   -9.1125    5.5546   25.5687 C   0  0  0  0  0  0  0  0  0  0  0  0
   -8.6212    4.2727   25.9768 C   0  0  0  0  0  0  0  0  0  0  0  0
   -9.5252   -0.5356   27.1213 C   0  0  0  0  0  0  0  0  0  0  0  0
   -8.7035   -1.6108   27.3425 C   0  0  0  0  0  0  0  0  0  0  0  0
   -7.3580   -1.5393   27.3764 C   0  0  0  0  0  0  0  0  0  0  0  0
   -6.6935   -0.3357   27.2591 C   0  0  0  0  0  0  0  0  0  0  0  0
  -10.9847   -0.5862   27.1851 C   0  0  2  0  0  0  0  0  0  0  0  0
  -12.0447    0.1460   26.4508 Cl  0  0  0  0  0  0  0  0  0  0  0  0
  -11.4872   -1.4866   28.3467 C   0  0  0  0  0  0  0  0  0  0  0  0
  -12.5469   -1.0730   28.8762 C   0  0  0  0  0  0  0  0  0  0  0  0
  -13.5500   -1.8685   29.0030 C   0  0  0  0  0  0  0  0  0  0  0  0
  -14.8149   -1.3819   29.5290 C   0  0  0  0  0  0  0  0  0  0  0  0
  -14.8913   -0.0616   30.0295 C   0  0  0  0  0  0  0  0  0  0  0  0
  -13.7761    0.7775   29.9445 C   0  0  0  0  0  0  0  0  0  0  0  0
  -12.6340    0.3461   29.3958 C   0  0  0  0  0  0  0  0  0  0  0  0
  -13.8442    2.1963   30.4483 C   0  0  0  0  0  0  0  0  0  0  0  0
  -14.6072    3.1428   29.8170 C   0  0  0  0  0  0  0  0  0  0  0  0
  -14.5381    4.4795   30.2551 C   0  0  0  0  0  0  0  0  0  0  0  0
  1  3  1  0
  3  4  1  0
  4  5  1  0
 11 15  1  0
 15 16  1  1
 15 17  1  0
 17 18  1  0
 22 24  1  0
 24 25  2  3
 25 26  1  0
  1  2  2  0
  2  7  1  0
  7  8  2  0
  8  9  1  0
  9 10  2  0
 10  1  1  0
 18 19  2  0
 19 20  1  0
 20 21  2  0
 21 22  1  0
 22 23  2  0
 23 18  1  0
  5  6  2  0
  6 11  1  0
 11 12  2  0
 12 13  1  0
 13 14  2  0
 14  5  1  0
M  END
$$$$
