No_8861-complexes_sdf/6BKW-FPZ/2024-09-17-14-21-01/
     RDKit          3D

 28 32  0  0  0  0  0  0  0  0999 V2000
   -7.9040    3.9820   27.1177 C   0  0  0  0  0  0  0  0  0  0  0  0
   -9.0711    4.3164   27.0630 C   0  0  0  0  0  0  0  0  0  0  0  0
   -9.9692    3.7224   26.1073 C   0  0  0  0  0  0  0  0  0  0  0  0
   -7.4776    2.6994   26.6283 C   0  0  0  0  0  0  0  0  0  0  0  0
   -8.4406    1.9440   25.9776 C   0  0  0  0  0  0  0  0  0  0  0  0
   -9.6379    2.5001   25.6881 C   0  0  0  0  0  0  0  0  0  0  0  0
   -6.9026    4.4746   27.9739 N   0  0  0  0  0  0  0  0  0  0  0  0
   -7.2547    5.6803   28.5961 C   0  0  0  0  0  0  0  0  0  0  0  0
   -8.4591    6.2284   28.2262 N   0  0  0  0  0  0  0  0  0  0  0  0
   -9.3817    5.6473   27.4933 C   0  0  0  0  0  0  0  0  0  0  0  0
   -8.0612    0.6178   25.4224 C   0  0  0  0  0  0  0  0  0  0  0  0
   -8.4821    0.1878   24.3122 N   0  0  0  0  0  0  0  0  0  0  0  0
   -7.8734   -0.6394   23.5192 C   0  0  0  0  0  0  0  0  0  0  0  0
   -8.2895   -0.8815   22.1683 C   0  0  2  0  0  0  0  0  0  0  0  0
   -9.3696   -0.1363   21.6897 C   0  0  0  0  0  0  0  0  0  0  0  0
   -9.9721    0.8468   22.4410 C   0  0  0  0  0  0  0  0  0  0  0  0
   -9.4698    1.0762   23.7447 C   0  0  1  0  0  0  0  0  0  0  0  0
  -10.0288    2.1497   24.4473 C   0  0  0  0  0  0  0  0  0  0  0  0
  -11.0142    2.7882   23.8242 F   0  0  0  0  0  0  0  0  0  0  0  0
   -7.1923   -0.0275   26.1964 O   0  0  0  0  0  0  0  0  0  0  0  0
   -7.7562   -1.9493   21.3609 C   0  0  0  0  0  0  0  0  0  0  0  0
   -6.4695   -2.4160   21.7012 C   0  0  0  0  0  0  0  0  0  0  0  0
   -5.8922   -3.2438   21.4325 C   0  0  0  0  0  0  0  0  0  0  0  0
   -6.3429   -4.0454   20.3673 C   0  0  0  0  0  0  0  0  0  0  0  0
   -7.5589   -3.6463   19.7163 C   0  0  0  0  0  0  0  0  0  0  0  0
   -8.2807   -2.5899   20.2779 C   0  0  0  0  0  0  0  0  0  0  0  0
   -8.0914   -4.3200   18.7117 F   0  0  0  0  0  0  0  0  0  0  0  0
  -11.2281    1.8476   24.4621 F   0  0  0  0  0  0  0  0  0  0  0  0
  5 11  1  0
 11 12  1  0
 12 13  1  0
 14 15  1  0
 12 17  1  0
 17 16  1  1
  6 18  1  0
 17 18  1  0
 18 19  1  0
 11 20  2  0
 14 21  1  1
 25 27  1  0
 18 28  1  0
 13 14  1  0
 15 16  1  0
  2  3  2  0
  3  6  1  0
  6  5  2  0
  5  4  1  0
  4  1  2  0
  1  2  1  0
  2 10  1  0
 10  9  2  0
  9  8  1  0
  8  7  2  0
  7  1  1  0
 21 22  2  0
 22 23  1  0
 23 24  2  0
 24 25  1  0
 25 26  2  0
 26 21  1  0
M  END
$$$$
