No_8336-complexes_sdf/6BKW-FPZ/2024-09-17-14-21-01/
     RDKit          3D

 15 16  0  0  0  0  0  0  0  0999 V2000
   -7.7129    4.2099   27.0854 C   0  0  0  0  0  0  0  0  0  0  0  0
   -7.7814    5.1722   27.8972 C   0  0  0  0  0  0  0  0  0  0  0  0
   -7.3155    2.9699   27.6145 C   0  0  0  0  0  0  0  0  0  0  0  0
   -7.9010    1.7962   27.2023 C   0  0  0  0  0  0  0  0  0  0  0  0
   -8.9578    1.9047   26.2707 C   0  0  0  0  0  0  0  0  0  0  0  0
   -9.5091    0.6761   25.7814 C   0  0  0  0  0  0  0  0  0  0  0  0
   -8.8418    4.0744   26.2054 C   0  0  0  0  0  0  0  0  0  0  0  0
   -9.3605    2.9866   25.7224 C   0  0  0  0  0  0  0  0  0  0  0  0
  -10.2103    0.4753   25.0583 C   0  0  0  0  0  0  0  0  0  0  0  0
  -10.8081   -0.8130   24.5548 C   0  0  0  0  0  0  0  0  0  0  0  0
   -7.9818    6.5342   27.4786 N   0  0  0  0  0  0  0  0  0  0  0  0
  -10.2889   -1.6933   24.9825 C   0  0  0  0  0  0  0  0  0  0  0  0
   -9.1027   -0.8324   26.2732 C   0  0  0  0  0  0  0  0  0  0  0  0
   -9.5238   -1.8827   25.8316 C   0  0  0  0  0  0  0  0  0  0  0  0
   -8.9794   -3.1416   26.5003 C   0  0  0  0  0  0  0  0  0  0  0  0
  1  2  1  0
  5  6  1  0
  6  9  2  0
  9 10  1  0
  2 11  2  0
 10 12  2  0
  6 13  1  0
 12 13  1  0
 12 14  1  0
 14 15  1  0
  1  3  2  0
  3  4  1  0
  4  5  2  0
  5  8  1  0
  8  7  2  0
  7  1  1  0
M  END
$$$$
