No_8449-complexes_sdf/6BKW-FPZ/2024-09-17-14-21-01/
     RDKit          3D

 40 44  0  0  0  0  0  0  0  0999 V2000
   -7.9040    3.9820   27.1177 C   0  0  0  0  0  0  0  0  0  0  0  0
   -8.2057    2.8231   26.8733 C   0  0  0  0  0  0  0  0  0  0  0  0
   -8.7695    5.0740   26.7916 C   0  0  0  0  0  0  0  0  0  0  0  0
   -9.7466    4.9191   26.3183 C   0  0  0  0  0  0  0  0  0  0  0  0
   -9.4594    2.5453   26.2990 C   0  0  0  0  0  0  0  0  0  0  0  0
  -10.2402    3.6028   25.9953 C   0  0  0  0  0  0  0  0  0  0  0  0
   -8.2287    6.4917   27.1513 C   0  0  0  0  0  0  0  0  0  0  0  0
   -7.6095    6.7815   28.2090 N   0  0  0  0  0  0  0  0  0  0  0  0
   -8.5802    7.5190   26.3505 N   0  0  0  0  0  0  0  0  0  0  0  0
   -7.1697    1.4636   27.3109 Cl  0  0  0  0  0  0  0  0  0  0  0  0
  -11.5186    3.4187   25.2795 C   0  0  0  0  0  0  0  0  0  0  0  0
  -12.6573    3.1323   25.9541 C   0  0  0  0  0  0  0  0  0  0  0  0
  -11.5509    3.4791   23.8648 C   0  0  0  0  0  0  0  0  0  0  0  0
  -12.6493    3.5262   23.1656 C   0  0  0  0  0  0  0  0  0  0  0  0
  -12.7014    3.0786   27.3907 C   0  0  0  0  0  0  0  0  0  0  0  0
  -11.8516    3.5076   28.1796 C   0  0  0  0  0  0  0  0  0  0  0  0
  -12.1110    3.3295   29.7338 C   0  0  0  0  0  0  0  0  0  0  0  0
  -13.8710    3.3131   23.7924 C   0  0  0  0  0  0  0  0  0  0  0  0
  -13.8844    3.1986   25.1654 C   0  0  0  0  0  0  0  0  0  0  0  0
  -13.8823    2.4094   27.9498 C   0  0  0  0  0  0  0  0  0  0  0  0
  -14.0609    2.1564   29.3206 C   0  0  0  0  0  0  0  0  0  0  0  0
  -13.1151    2.7114   30.1844 C   0  0  0  0  0  0  0  0  0  0  0  0
  -10.2145    3.7529   23.1942 C   0  0  0  0  0  0  0  0  0  0  0  0
  -13.3028    2.6119   31.5337 O   0  0  0  0  0  0  0  0  0  0  0  0
  -13.5813    3.7483   32.2422 C   0  0  0  0  0  0  0  0  0  0  0  0
  -13.2127    3.7287   33.6262 C   0  0  0  0  0  0  0  0  0  0  0  0
  -13.3398    5.0020   34.3622 C   0  0  0  0  0  0  0  0  0  0  0  0
  -12.9135    5.1330   35.6675 C   0  0  0  0  0  0  0  0  0  0  0  0
  -12.1018    4.1040   36.2242 C   0  0  0  0  0  0  0  0  0  0  0  0
  -11.9264    2.9479   35.4480 C   0  0  0  0  0  0  0  0  0  0  0  0
  -12.3990    2.8188   34.2019 C   0  0  0  0  0  0  0  0  0  0  0  0
  -11.5870    4.2485   37.5850 C   0  0  0  0  0  0  0  0  0  0  0  0
  -11.3294    5.4511   38.0296 C   0  0  0  0  0  0  0  0  0  0  0  0
  -12.1990    6.5793   37.4798 C   0  0  0  0  0  0  0  0  0  0  0  0
  -12.8262    6.4389   36.2957 C   0  0  0  0  0  0  0  0  0  0  0  0
  -10.7264    5.7765   39.3420 C   0  0  0  0  0  0  0  0  0  0  0  0
   -9.5687    5.2523   39.5626 N   0  0  0  0  0  0  0  0  0  0  0  0
   -9.1317    4.2767   39.2979 C   0  0  0  0  0  0  0  0  0  0  0  0
   -7.6915    3.8962   39.6644 C   0  0  0  0  0  0  0  0  0  0  0  0
   -7.2769    5.0931   40.4161 C   0  0  0  0  0  0  0  0  0  0  0  0
  3  7  1  0
  7  8  1  0
  7  9  2  0
  2 10  1  0
  6 11  1  0
 12 15  1  0
 13 23  1  0
 22 24  1  0
 24 25  1  0
 33 36  1  0
 36 37  1  0
 37 38  1  0
 38 39  2  3
 39 40  1  0
 25 26  1  0
 15 16  2  0
 16 17  1  0
 17 22  2  0
 22 21  1  0
 21 20  2  0
 20 15  1  0
 11 12  2  0
 12 19  1  0
 19 18  2  0
 18 14  1  0
 14 13  2  0
 13 11  1  0
 29 32  2  0
 32 33  1  0
 33 34  2  0
 34 35  1  0
 35 28  2  0
 26 27  2  0
 27 28  1  0
 28 29  1  0
 29 30  1  0
 30 31  2  0
 31 26  1  0
  1  2  2  0
  2  5  1  0
  5  6  2  0
  6  4  1  0
  4  3  2  0
  3  1  1  0
M  END
$$$$
