No_8578-complexes_sdf/6BKW-FPZ/2024-09-17-14-21-01/
     RDKit          3D

 16 17  0  0  0  0  0  0  0  0999 V2000
   -7.9040    3.9820   27.1177 C   0  0  0  0  0  0  0  0  0  0  0  0
   -8.2057    2.8231   26.8733 C   0  0  0  0  0  0  0  0  0  0  0  0
   -8.7695    5.0740   26.7916 C   0  0  0  0  0  0  0  0  0  0  0  0
   -9.9618    4.7598   26.1630 C   0  0  0  0  0  0  0  0  0  0  0  0
   -9.4200    2.4524   26.2849 C   0  0  0  0  0  0  0  0  0  0  0  0
  -10.2590    3.4815   25.9250 C   0  0  0  0  0  0  0  0  0  0  0  0
   -8.4077    6.3768   27.0642 N   0  0  0  0  0  0  0  0  0  0  0  0
   -8.1606    7.3276   26.1703 C   0  0  0  0  0  0  0  0  0  0  0  0
   -7.2818    1.6570   27.2982 C   0  0  0  0  0  0  0  0  0  0  0  0
   -6.7269    0.9120   26.8841 N   0  0  0  0  0  0  0  0  0  0  0  0
   -5.8647    0.1174   27.6491 C   0  0  0  0  0  0  0  0  0  0  0  0
   -5.6918   -1.2148   27.5852 C   0  0  0  0  0  0  0  0  0  0  0  0
   -4.7820    0.8362   28.4696 C   0  0  0  0  0  0  0  0  0  0  0  0
   -3.9930    0.1461   29.3424 C   0  0  0  0  0  0  0  0  0  0  0  0
   -3.8344   -1.1579   29.3320 C   0  0  0  0  0  0  0  0  0  0  0  0
   -4.7591   -1.8619   28.4687 C   0  0  0  0  0  0  0  0  0  0  0  0
  3  7  1  0
  7  8  1  0
  2  9  1  0
  9 10  2  3
 10 11  1  0
 11 12  2  0
 12 16  1  0
 16 15  2  0
 15 14  1  0
 14 13  2  0
 13 11  1  0
  1  2  2  0
  2  5  1  0
  5  6  2  0
  6  4  1  0
  4  3  2  0
  3  1  1  0
M  END
$$$$
