No_8354-complexes_sdf/6BKW-FPZ/2024-09-17-14-21-01/
     RDKit          3D

 27 29  0  0  0  0  0  0  0  0999 V2000
   -7.7129    4.2099   27.0854 C   0  0  0  0  0  0  0  0  0  0  0  0
   -7.7814    5.1722   27.8972 C   0  0  0  0  0  0  0  0  0  0  0  0
   -8.8998    3.8713   26.3707 C   0  0  0  0  0  0  0  0  0  0  0  0
   -9.9938    4.6774   26.5446 C   0  0  0  0  0  0  0  0  0  0  0  0
   -8.7789    6.1536   27.9256 C   0  0  0  0  0  0  0  0  0  0  0  0
   -9.9428    5.8398   27.2296 C   0  0  0  0  0  0  0  0  0  0  0  0
   -8.9208    2.6404   25.5721 C   0  0  0  0  0  0  0  0  0  0  0  0
   -8.3287    1.4696   26.1305 C   0  0  0  0  0  0  0  0  0  0  0  0
   -8.3547    0.2800   25.4520 C   0  0  0  0  0  0  0  0  0  0  0  0
   -8.9330    0.2955   24.1910 C   0  0  0  0  0  0  0  0  0  0  0  0
   -9.5031    1.4373   23.6193 C   0  0  0  0  0  0  0  0  0  0  0  0
   -9.4717    2.5986   24.3320 C   0  0  0  0  0  0  0  0  0  0  0  0
  -10.0948    1.3898   22.2874 C   0  0  0  0  0  0  0  0  0  0  0  0
  -10.1260    0.2719   21.5605 C   0  0  0  0  0  0  0  0  0  0  0  0
   -9.4060   -0.8718   22.0878 C   0  0  0  0  0  0  0  0  0  0  0  0
   -8.8961   -0.8775   23.3353 C   0  0  0  0  0  0  0  0  0  0  0  0
   -6.6295    5.5957   28.6022 O   0  0  0  0  0  0  0  0  0  0  0  0
  -10.6448    2.4925   21.7441 O   0  0  0  0  0  0  0  0  0  0  0  0
  -10.5247    3.5510   21.9277 C   0  0  0  0  0  0  0  0  0  0  0  0
   -7.7288   -0.8796   26.0266 C   0  0  0  0  0  0  0  0  0  0  0  0
   -7.1770   -0.8361   27.2733 C   0  0  0  0  0  0  0  0  0  0  0  0
   -5.8694   -1.2870   27.4763 C   0  0  0  0  0  0  0  0  0  0  0  0
   -5.3621   -0.9496   28.6681 C   0  0  0  0  0  0  0  0  0  0  0  0
   -4.4183   -0.4994   29.3053 C   0  0  0  0  0  0  0  0  0  0  0  0
   -4.2963   -0.2418   30.6934 C   0  0  0  0  0  0  0  0  0  0  0  0
   -5.1599   -0.8820   31.5133 C   0  0  0  0  0  0  0  0  0  0  0  0
   -5.7930   -1.7295   31.2437 C   0  0  0  0  0  0  0  0  0  0  0  0
  3  7  1  0
  2 17  1  0
 13 18  1  0
 18 19  1  0
  9 20  1  0
 20 21  1  0
 21 22  1  0
 22 23  2  3
 23 24  1  0
 24 25  2  3
 25 26  1  0
 26 27  2  0
 11 13  1  0
 13 14  2  0
 14 15  1  0
 15 16  2  0
 16 10  1  0
  1  2  2  0
  2  5  1  0
  5  6  2  0
  6  4  1  0
  4  3  2  0
  3  1  1  0
  7  8  2  0
  8  9  1  0
  9 10  2  0
 10 11  1  0
 11 12  2  0
 12  7  1  0
M  END
$$$$
