No_8824-complexes_sdf/6BKW-FPZ/2024-09-17-14-21-01/
     RDKit          3D

 20 21  0  0  0  0  0  0  0  0999 V2000
   -7.9040    3.9820   27.1177 C   0  0  0  0  0  0  0  0  0  0  0  0
   -8.2057    2.8231   26.8733 C   0  0  0  0  0  0  0  0  0  0  0  0
   -7.0130    4.3706   28.1140 C   0  0  0  0  0  0  0  0  0  0  0  0
   -7.4093    1.7370   27.3857 C   0  0  0  0  0  0  0  0  0  0  0  0
   -6.1943    2.1490   28.0403 C   0  0  0  0  0  0  0  0  0  0  0  0
   -6.0160    3.4556   28.3085 N   0  0  0  0  0  0  0  0  0  0  0  0
   -5.4304    1.0779   28.2818 N   0  0  0  0  0  0  0  0  0  0  0  0
   -5.8394   -0.1275   28.1423 C   0  0  0  0  0  0  0  0  0  0  0  0
   -8.8777    5.1426   26.7089 C   0  0  0  0  0  0  0  0  0  0  0  0
   -8.7181    6.2559   27.3160 F   0  0  0  0  0  0  0  0  0  0  0  0
   -8.6457    5.5103   25.3518 F   0  0  0  0  0  0  0  0  0  0  0  0
  -10.1832    4.7355   26.7195 F   0  0  0  0  0  0  0  0  0  0  0  0
   -7.3725    0.3564   27.1575 C   0  0  1  0  0  0  0  0  0  0  0  0
   -5.4882   -1.3733   28.1505 C   0  0  0  0  0  0  0  0  0  0  0  0
   -6.2212   -0.5178   29.3521 C   0  0  0  0  0  0  0  0  0  0  0  0
   -8.2406   -0.5162   26.8217 C   0  0  0  0  0  0  0  0  0  0  0  0
   -6.5951    0.3760   25.9430 O   0  0  0  0  0  0  0  0  0  0  0  0
   -5.5938   -2.4220   28.1832 C   0  0  0  0  0  0  0  0  0  0  0  0
   -6.5409   -1.6352   30.0297 C   0  0  0  0  0  0  0  0  0  0  0  0
   -6.0732   -2.7769   29.5289 C   0  0  0  0  0  0  0  0  0  0  0  0
  5  7  1  0
  7  8  1  0
  1  9  1  0
  9 10  1  0
  9 11  1  0
  9 12  1  0
  4 13  1  0
 13 16  1  6
 13 17  1  0
  1  2  2  0
  2  4  1  0
  4  5  2  0
  5  6  1  0
  6  3  2  0
  3  1  1  0
  8 14  2  0
 14 18  1  0
 18 20  2  0
 20 19  1  0
 19 15  2  0
 15  8  1  0
M  END
$$$$
