No_833-complexes_sdf/6BKW-FPZ/2024-09-17-14-21-01/
     RDKit          3D

 11 11  0  0  0  0  0  0  0  0999 V2000
   -7.2496    3.8871   27.4508 C   0  0  0  0  0  0  0  0  0  0  0  0
   -7.9379    4.9063   27.8518 C   0  0  0  0  0  0  0  0  0  0  0  0
   -8.9501    5.3664   27.1340 C   0  0  0  0  0  0  0  0  0  0  0  0
   -6.1760    3.3069   28.2733 C   0  0  0  0  0  0  0  0  0  0  0  0
   -9.4085    4.7897   25.9343 C   0  0  0  0  0  0  0  0  0  0  0  0
   -8.7240    3.6012   25.5494 C   0  0  0  0  0  0  0  0  0  0  0  0
   -7.7568    3.1254   26.3556 C   0  0  0  0  0  0  0  0  0  0  0  0
   -5.5882    2.0365   27.9387 C   0  0  0  0  0  0  0  0  0  0  0  0
   -4.4009    1.6511   28.5745 C   0  0  0  0  0  0  0  0  0  0  0  0
   -3.9686    0.3856   28.2385 C   0  0  0  0  0  0  0  0  0  0  0  0
   -4.4734   -0.3183   27.6912 C   0  0  0  0  0  0  0  0  0  0  0  0
  1  4  1  0
  4  8  2  3
  8  9  1  0
  9 10  2  3
 10 11  1  0
  1  2  2  0
  2  3  1  0
  3  5  2  0
  5  6  1  0
  6  7  2  0
  7  1  1  0
M  END
$$$$
