No_8395-complexes_sdf/6BKW-FPZ/2024-09-17-14-21-01/
     RDKit          3D

 18 20  0  0  0  0  0  0  0  0999 V2000
   -7.7129    4.2099   27.0854 C   0  0  0  0  0  0  0  0  0  0  0  0
   -8.9133    4.4736   27.0998 C   0  0  0  0  0  0  0  0  0  0  0  0
   -9.4616    5.6470   27.6290 C   0  0  0  0  0  0  0  0  0  0  0  0
   -7.1883    4.1382   28.1736 C   0  0  0  0  0  0  0  0  0  0  0  0
   -7.3895    5.4969   28.9307 C   0  0  0  0  0  0  0  0  0  0  0  0
   -8.6161    6.0895   28.6885 C   0  0  0  0  0  0  0  0  0  0  0  0
   -9.7615    4.0251   25.8016 C   0  0  0  0  0  0  0  0  0  0  0  0
  -10.9203    3.8659   25.8963 N   0  0  0  0  0  0  0  0  0  0  0  0
  -11.7592    3.7113   24.7949 C   0  0  0  0  0  0  0  0  0  0  0  0
  -13.1521    3.7351   24.9094 C   0  0  0  0  0  0  0  0  0  0  0  0
  -11.2148    3.5619   23.4644 C   0  0  0  0  0  0  0  0  0  0  0  0
  -12.0648    3.4942   22.3808 C   0  0  0  0  0  0  0  0  0  0  0  0
  -13.7539    3.8971   26.2174 C   0  0  0  0  0  0  0  0  0  0  0  0
  -12.8110    4.0774   27.3223 C   0  0  0  0  0  0  0  0  0  0  0  0
  -11.4660    4.1290   27.1709 C   0  0  0  0  0  0  0  0  0  0  0  0
  -13.4418    3.5222   22.6296 C   0  0  0  0  0  0  0  0  0  0  0  0
  -14.0064    3.6994   23.8471 C   0  0  0  0  0  0  0  0  0  0  0  0
   -8.9612    3.3937   24.9667 O   0  0  0  0  0  0  0  0  0  0  0  0
  2  7  1  0
  7  8  1  0
  8  9  1  0
 10 13  1  0
  8 15  1  0
 14 15  1  0
  7 18  2  0
 13 14  1  0
  9 11  2  0
 11 12  1  0
 12 16  2  0
 16 17  1  0
 17 10  2  0
 10  9  1  0
  1  2  2  0
  2  3  1  0
  3  6  2  0
  6  5  1  0
  5  4  2  0
  4  1  1  0
M  END
$$$$
