No_8563-complexes_sdf/6BKW-FPZ/2024-09-17-14-21-01/
     RDKit          3D

 13 13  0  0  0  0  0  0  0  0999 V2000
   -7.7129    4.2099   27.0854 C   0  0  0  0  0  0  0  0  0  0  0  0
   -8.2112    3.0637   26.9225 C   0  0  0  0  0  0  0  0  0  0  0  0
   -8.5108    5.3904   26.9436 C   0  0  0  0  0  0  0  0  0  0  0  0
   -9.7256    5.1955   26.3518 C   0  0  0  0  0  0  0  0  0  0  0  0
   -9.4995    2.8258   26.4878 C   0  0  0  0  0  0  0  0  0  0  0  0
  -10.2542    3.9691   26.2055 C   0  0  0  0  0  0  0  0  0  0  0  0
   -7.8124    6.9180   27.2380 Cl  0  0  0  0  0  0  0  0  0  0  0  0
   -7.3581    1.8338   27.2460 C   0  0  0  0  0  0  0  0  0  0  0  0
   -7.7991    0.5949   27.1385 N   0  0  0  0  0  0  0  0  0  0  0  0
   -7.0514   -0.4514   27.4444 C   0  0  0  0  0  0  0  0  0  0  0  0
   -5.7690   -0.1926   27.8870 C   0  0  0  0  0  0  0  0  0  0  0  0
   -4.8545   -1.2384   28.2908 C   0  0  0  0  0  0  0  0  0  0  0  0
   -6.1882    2.0753   27.6500 O   0  0  0  0  0  0  0  0  0  0  0  0
  3  7  1  0
  2  8  1  0
  8  9  1  0
  9 10  1  0
 10 11  2  3
 11 12  1  0
  8 13  2  0
  1  2  2  0
  2  5  1  0
  5  6  2  0
  6  4  1  0
  4  3  2  0
  3  1  1  0
M  END
$$$$
