No_8600-complexes_sdf/6BKW-FPZ/2024-09-17-14-21-01/
     RDKit          3D

 16 17  0  0  0  0  0  0  0  0999 V2000
   -7.7129    4.2099   27.0854 C   0  0  0  0  0  0  0  0  0  0  0  0
   -8.9133    4.4736   27.0998 C   0  0  0  0  0  0  0  0  0  0  0  0
   -9.4616    5.6470   27.6290 C   0  0  0  0  0  0  0  0  0  0  0  0
   -6.8722    5.1130   27.9248 C   0  0  0  0  0  0  0  0  0  0  0  0
   -7.3801    6.2535   28.4126 C   0  0  0  0  0  0  0  0  0  0  0  0
   -8.6734    6.5530   28.2150 C   0  0  0  0  0  0  0  0  0  0  0  0
   -9.7626    3.4440   26.3353 C   0  0  0  0  0  0  0  0  0  0  0  0
  -10.4757    3.6852   25.4323 C   0  0  0  0  0  0  0  0  0  0  0  0
  -10.6058    5.0920   24.9144 C   0  0  0  0  0  0  0  0  0  0  0  0
  -11.2916    2.7330   24.6742 C   0  0  0  0  0  0  0  0  0  0  0  0
  -11.0254    2.2688   23.5851 C   0  0  0  0  0  0  0  0  0  0  0  0
  -11.7810    1.2713   22.8638 C   0  0  0  0  0  0  0  0  0  0  0  0
  -11.3343    0.7507   21.6555 C   0  0  0  0  0  0  0  0  0  0  0  0
  -10.0709    1.1774   21.1151 C   0  0  0  0  0  0  0  0  0  0  0  0
   -9.3253    2.0995   21.7648 C   0  0  0  0  0  0  0  0  0  0  0  0
   -9.7058    2.6481   22.9455 C   0  0  0  0  0  0  0  0  0  0  0  0
  2  7  1  0
  7  8  2  3
  8  9  1  0
  8 10  1  0
 10 11  1  0
 11 12  2  0
 12 13  1  0
 13 14  2  0
 14 15  1  0
 15 16  2  0
 16 11  1  0
  1  2  2  0
  2  3  1  0
  3  6  2  0
  6  5  1  0
  5  4  2  0
  4  1  1  0
M  END
$$$$
