No_812-complexes_sdf/6BKW-FPZ/2024-09-17-14-21-01/
     RDKit          3D

  7  6  0  0  0  0  0  0  0  0999 V2000
   -7.7129    4.2099   27.0854 C   0  0  0  0  0  0  0  0  0  0  0  0
   -8.9133    4.4736   27.0998 C   0  0  0  0  0  0  0  0  0  0  0  0
   -9.7135    3.9633   26.0300 C   0  0  0  0  0  0  0  0  0  0  0  0
   -6.8420    4.9760   28.0851 C   0  0  0  0  0  0  0  0  0  0  0  0
   -9.6552    4.2398   24.9005 C   0  0  0  0  0  0  0  0  0  0  0  0
  -10.4286    3.7872   23.7716 C   0  0  0  0  0  0  0  0  0  0  0  0
  -10.3014    4.2742   22.4915 C   0  0  0  0  0  0  0  0  0  0  0  0
  1  2  1  0
  2  3  1  0
  1  4  1  0
  3  5  2  3
  5  6  1  0
  6  7  2  0
M  END
$$$$
