No_8876-complexes_sdf/6BKW-FPZ/2024-09-17-14-21-01/
     RDKit          3D

 15 17  0  0  0  0  0  0  0  0999 V2000
   -7.2496    3.8871   27.4508 C   0  0  0  0  0  0  0  0  0  0  0  0
   -7.9379    4.9063   27.8518 C   0  0  0  0  0  0  0  0  0  0  0  0
   -7.5112    6.1898   27.6280 C   0  0  0  0  0  0  0  0  0  0  0  0
   -7.8078    2.6331   27.2522 C   0  0  0  0  0  0  0  0  0  0  0  0
   -7.1538    1.5087   26.7509 C   0  0  0  0  0  0  0  0  0  0  0  0
   -9.2767    2.6626   26.9122 C   0  0  0  0  0  0  0  0  0  0  0  0
   -9.9630    1.4290   27.2529 C   0  0  0  0  0  0  0  0  0  0  0  0
   -7.7991    0.2858   26.7816 C   0  0  0  0  0  0  0  0  0  0  0  0
   -9.1910    0.2595   27.0068 C   0  0  0  0  0  0  0  0  0  0  0  0
   -8.4381    7.2292   27.5877 C   0  0  0  0  0  0  0  0  0  0  0  0
   -9.8410    6.8278   27.3506 C   0  0  0  0  0  0  0  0  0  0  0  0
  -10.2250    5.5457   27.5783 C   0  0  0  0  0  0  0  0  0  0  0  0
   -9.3341    4.5891   27.7724 C   0  0  0  0  0  0  0  0  0  0  0  0
   -9.9069    3.7116   26.8611 N   0  0  0  0  0  0  0  0  0  0  0  0
  -10.7903    3.8833   25.9074 C   0  0  0  0  0  0  0  0  0  0  0  0
  1  2  1  0
  1  4  1  0
  6 14  1  0
 13 14  1  0
 14 15  1  0
  2  3  2  0
  3 10  1  0
 10 11  2  0
 11 12  1  0
 12 13  2  0
 13  2  1  0
  4  5  2  0
  5  8  1  0
  8  9  2  0
  9  7  1  0
  7  6  2  0
  6  4  1  0
M  END
$$$$
