No_8393-complexes_sdf/6BKW-FPZ/2024-09-17-14-21-01/
     RDKit          3D

 10 11  0  0  0  0  0  0  0  0999 V2000
   -7.9040    3.9820   27.1177 C   0  0  0  0  0  0  0  0  0  0  0  0
   -8.2057    2.8231   26.8733 C   0  0  0  0  0  0  0  0  0  0  0  0
   -7.0130    4.3706   28.1140 C   0  0  0  0  0  0  0  0  0  0  0  0
   -9.4741    2.4344   26.3718 C   0  0  0  0  0  0  0  0  0  0  0  0
  -10.2665    3.4433   25.8839 C   0  0  0  0  0  0  0  0  0  0  0  0
   -9.8885    4.7893   26.0401 C   0  0  0  0  0  0  0  0  0  0  0  0
   -8.7136    5.0617   26.7279 C   0  0  0  0  0  0  0  0  0  0  0  0
   -8.4116    6.4438   27.0213 C   0  0  0  0  0  0  0  0  0  0  0  0
   -7.1384    6.8188   27.4794 C   0  0  0  0  0  0  0  0  0  0  0  0
   -6.5768    5.7274   28.2257 C   0  0  0  0  0  0  0  0  0  0  0  0
  1  3  1  0
  3 10  2  0
 10  9  1  0
  9  8  2  0
  8  7  1  0
  1  2  2  0
  2  4  1  0
  4  5  2  0
  5  6  1  0
  6  7  2  0
  7  1  1  0
M  END
$$$$
