No_8689-complexes_sdf/6BKW-FPZ/2024-09-17-14-21-01/
     RDKit          3D

  9  9  0  0  0  0  0  0  0  0999 V2000
   -7.2496    3.8871   27.4508 C   0  0  0  0  0  0  0  0  0  0  0  0
   -8.5096    4.0291   27.2770 C   0  0  0  0  0  0  0  0  0  0  0  0
   -9.2669    5.1645   27.5845 C   0  0  0  0  0  0  0  0  0  0  0  0
   -8.4566    6.3212   27.8001 C   0  0  0  0  0  0  0  0  0  0  0  0
   -6.6044    2.5801   27.2072 C   0  0  0  0  0  0  0  0  0  0  0  0
   -7.3819    1.4822   27.0097 C   0  0  0  0  0  0  0  0  0  0  0  0
   -8.7419    1.6392   26.7945 C   0  0  0  0  0  0  0  0  0  0  0  0
   -9.3915    2.8607   27.0849 C   0  0  0  0  0  0  0  0  0  0  0  0
  -10.6457    5.2284   27.7929 C   0  0  0  0  0  0  0  0  0  0  0  0
  2  3  1  0
  3  4  1  0
  3  9  1  0
  1  2  2  0
  2  8  1  0
  8  7  2  0
  7  6  1  0
  6  5  2  0
  5  1  1  0
M  END
$$$$
