No_8387-complexes_sdf/6BKW-FPZ/2024-09-17-14-21-01/
     RDKit          3D

 30 33  0  0  0  0  0  0  0  0999 V2000
   -7.2496    3.8871   27.4508 C   0  0  1  0  0  0  0  0  0  0  0  0
   -8.5096    4.0291   27.2770 C   0  0  0  0  0  0  0  0  0  0  0  0
   -9.2669    5.1645   27.5845 C   0  0  0  0  0  0  0  0  0  0  0  0
  -10.6621    5.2321   27.4284 C   0  0  0  0  0  0  0  0  0  0  0  0
   -9.2831    2.8719   26.7564 C   0  0  0  0  0  0  0  0  0  0  0  0
  -10.6359    2.9721   26.5036 C   0  0  0  0  0  0  0  0  0  0  0  0
  -11.3526    4.1308   26.9064 C   0  0  0  0  0  0  0  0  0  0  0  0
   -6.4950    4.8496   27.9814 N   0  0  0  0  0  0  0  0  0  0  0  0
   -6.6161    2.6634   27.4183 N   0  0  0  0  0  0  0  0  0  0  0  0
   -5.2576    2.6969   27.8607 C   0  0  0  0  0  0  0  0  0  0  0  0
   -5.1796    4.0715   28.1885 N   0  0  0  0  0  0  0  0  0  0  0  0
  -12.8017    4.2502   26.6993 C   0  0  0  0  0  0  0  0  0  0  0  0
  -13.6308    4.6004   27.7595 C   0  0  0  0  0  0  0  0  0  0  0  0
  -15.0137    4.7905   27.6207 C   0  0  0  0  0  0  0  0  0  0  0  0
  -15.5338    4.6198   26.3228 C   0  0  0  0  0  0  0  0  0  0  0  0
  -14.6919    4.2927   25.2718 C   0  0  0  0  0  0  0  0  0  0  0  0
  -13.3499    4.1572   25.4789 C   0  0  0  0  0  0  0  0  0  0  0  0
   -4.4567    1.8227   27.9727 N   0  0  0  0  0  0  0  0  0  0  0  0
   -4.7205    0.4866   27.7277 C   0  0  2  0  0  0  0  0  0  0  0  0
   -3.6761   -0.1937   27.1703 C   0  0  0  0  0  0  0  0  0  0  0  0
   -4.0198   -1.1679   26.2374 C   0  0  0  0  0  0  0  0  0  0  0  0
   -5.2055   -1.5666   26.3291 C   0  0  0  0  0  0  0  0  0  0  0  0
   -5.6009   -2.6161   25.3614 C   0  0  0  0  0  0  0  0  0  0  0  0
   -5.7828    0.0486   26.8013 C   0  0  0  0  0  0  0  0  0  0  0  0
   -4.9105   -3.4028   24.9951 N   0  0  0  0  0  0  0  0  0  0  0  0
   -3.5134   -3.3463   25.2235 C   0  0  0  0  0  0  0  0  0  0  0  0
   -2.9710   -2.2464   25.8979 C   0  0  2  0  0  0  0  0  0  0  0  0
   -3.8894   -0.1597   24.9643 C   0  0  0  0  0  0  0  0  0  0  0  0
   -1.5700   -2.0788   26.1054 C   0  0  0  0  0  0  0  0  0  0  0  0
   -2.6418   -3.0774   26.8053 O   0  0  0  0  0  0  0  0  0  0  0  0
  1  8  1  0
  1  9  1  0
  9 10  1  0
  8 11  1  0
 10 11  2  0
  7 12  1  0
 10 18  1  0
 19 18  1  6
 19 20  1  0
 20 21  1  0
 21 22  2  0
 22 23  1  0
 19 24  1  0
 22 24  1  0
 23 25  1  0
 25 26  2  3
 26 27  1  0
 21 28  1  0
 27 29  1  6
 27 30  1  0
  1  2  1  1
 12 13  2  0
 13 14  1  0
 14 15  2  0
 15 16  1  0
 16 17  2  0
 17 12  1  0
  2  3  2  0
  3  4  1  0
  4  7  2  0
  7  6  1  0
  6  5  2  0
  5  2  1  0
M  END
$$$$
