No_8195-complexes_sdf/6BKW-FPZ/2024-09-17-14-21-01/
     RDKit          3D

 35 40  0  0  0  0  0  0  0  0999 V2000
   -7.2496    3.8871   27.4508 C   0  0  0  0  0  0  0  0  0  0  0  0
   -7.9379    4.9063   27.8518 C   0  0  0  0  0  0  0  0  0  0  0  0
   -9.3376    4.8647   27.7795 C   0  0  0  0  0  0  0  0  0  0  0  0
   -7.8544    2.6294   27.0414 C   0  0  0  0  0  0  0  0  0  0  0  0
   -9.2852    2.6570   27.0666 C   0  0  0  0  0  0  0  0  0  0  0  0
  -10.0126    3.7528   27.4890 C   0  0  0  0  0  0  0  0  0  0  0  0
   -9.9609    1.3640   26.7239 C   0  0  0  0  0  0  0  0  0  0  0  0
   -9.5398    0.4290   26.1345 C   0  0  0  0  0  0  0  0  0  0  0  0
   -8.1438    0.6109   25.5445 C   0  0  0  0  0  0  0  0  0  0  0  0
   -7.2489    1.6488   26.3402 N   0  0  0  0  0  0  0  0  0  0  0  0
  -11.4492    3.6778   27.6567 C   0  0  0  0  0  0  0  0  0  0  0  0
  -11.9911    4.2331   28.7203 C   0  0  0  0  0  0  0  0  0  0  0  0
  -13.4336    4.2395   28.9690 C   0  0  0  0  0  0  0  0  0  0  0  0
  -14.2299    3.7372   27.9295 C   0  0  0  0  0  0  0  0  0  0  0  0
  -12.3127    3.2532   26.6533 C   0  0  0  0  0  0  0  0  0  0  0  0
  -13.6563    3.3070   26.7640 C   0  0  0  0  0  0  0  0  0  0  0  0
   -7.1017    6.3313   28.3967 Cl  0  0  0  0  0  0  0  0  0  0  0  0
  -10.1897   -0.7344   25.6891 C   0  0  0  0  0  0  0  0  0  0  0  0
  -10.3124   -1.7971   26.5506 C   0  0  0  0  0  0  0  0  0  0  0  0
   -9.7264   -1.8506   27.6524 C   0  0  0  0  0  0  0  0  0  0  0  0
   -9.8938   -2.9484   28.6775 C   0  0  0  0  0  0  0  0  0  0  0  0
   -9.1444   -2.8855   29.8951 C   0  0  0  0  0  0  0  0  0  0  0  0
   -7.8852   -2.2744   29.8765 C   0  0  0  0  0  0  0  0  0  0  0  0
   -7.0535   -2.2335   30.9985 C   0  0  0  0  0  0  0  0  0  0  0  0
   -7.5969   -2.5728   32.2812 C   0  0  0  0  0  0  0  0  0  0  0  0
   -6.8266   -2.4724   33.4385 C   0  0  0  0  0  0  0  0  0  0  0  0
   -5.5341   -1.9143   33.3223 C   0  0  0  0  0  0  0  0  0  0  0  0
   -5.0057   -1.5536   32.0760 C   0  0  0  0  0  0  0  0  0  0  0  0
   -5.7983   -1.6496   30.9267 C   0  0  0  0  0  0  0  0  0  0  0  0
   -7.5110   -1.5184   28.7041 C   0  0  0  0  0  0  0  0  0  0  0  0
   -8.3254   -1.3204   27.7145 C   0  0  0  0  0  0  0  0  0  0  0  0
   -3.6708   -0.9056   31.9796 C   0  0  0  0  0  0  0  0  0  0  0  0
   -3.3543   -0.1568   30.9713 C   0  0  0  0  0  0  0  0  0  0  0  0
   -4.1188   -0.0518   29.7631 C   0  0  0  0  0  0  0  0  0  0  0  0
   -5.3589   -0.7964   29.7769 C   0  0  0  0  0  0  0  0  0  0  0  0
  6 11  1  0
  2 17  1  0
  8 18  1  0
 18 19  1  0
 23 24  1  0
 19 20  1  0
 29 35  2  0
 35 34  1  0
 34 33  2  0
 33 32  1  0
 32 28  2  0
 24 25  2  0
 25 26  1  0
 26 27  2  0
 27 28  1  0
 28 29  1  0
 29 24  1  0
  1  2  2  0
  2  3  1  0
  3  6  2  0
  6  5  1  0
  4  1  1  0
 20 21  2  0
 21 22  1  0
 22 23  2  0
 23 30  1  0
 30 31  2  0
 31 20  1  0
 11 12  2  0
 12 13  1  0
 13 14  2  0
 14 16  1  0
 16 15  2  0
 15 11  1  0
  4  5  2  0
  5  7  1  0
  7  8  2  0
  8  9  1  0
  9 10  2  0
 10  4  1  0
M  END
$$$$
