No_8862-complexes_sdf/6BKW-FPZ/2024-09-17-14-21-01/
     RDKit          3D

 21 22  0  0  0  0  0  0  0  0999 V2000
   -7.2496    3.8871   27.4508 C   0  0  0  0  0  0  0  0  0  0  0  0
   -8.5096    4.0291   27.2770 C   0  0  0  0  0  0  0  0  0  0  0  0
   -9.2677    5.1714   27.5773 C   0  0  0  0  0  0  0  0  0  0  0  0
   -6.5711    2.6400   27.2842 C   0  0  0  0  0  0  0  0  0  0  0  0
   -7.2939    1.5094   27.0532 C   0  0  0  0  0  0  0  0  0  0  0  0
   -8.6122    1.6580   26.7575 C   0  0  0  0  0  0  0  0  0  0  0  0
   -9.2984    2.8495   26.9904 C   0  0  0  0  0  0  0  0  0  0  0  0
   -9.2193    6.1529   26.7038 C   0  0  0  0  0  0  0  0  0  0  0  0
   -6.5784    0.2706   26.8850 C   0  0  0  0  0  0  0  0  0  0  0  0
   -6.7086   -0.4951   26.1160 O   0  0  0  0  0  0  0  0  0  0  0  0
   -5.4246    0.2180   27.7711 O   0  0  0  0  0  0  0  0  0  0  0  0
   -9.5416    6.0003   25.5278 F   0  0  0  0  0  0  0  0  0  0  0  0
   -7.8385    6.7140   26.7047 F   0  0  0  0  0  0  0  0  0  0  0  0
   -9.8026    7.3634   27.1977 F   0  0  0  0  0  0  0  0  0  0  0  0
   -4.9056   -0.7472   28.2581 C   0  0  0  0  0  0  0  0  0  0  0  0
   -4.0357   -0.3936   29.3032 C   0  0  0  0  0  0  0  0  0  0  0  0
   -2.9109   -1.1001   29.4045 C   0  0  0  0  0  0  0  0  0  0  0  0
   -1.9406   -0.6715   30.4179 C   0  0  0  0  0  0  0  0  0  0  0  0
   -2.4630    0.0887   31.5053 C   0  0  0  0  0  0  0  0  0  0  0  0
   -3.7828    0.5546   31.5062 C   0  0  0  0  0  0  0  0  0  0  0  0
   -4.5449    0.3312   30.4344 C   0  0  0  0  0  0  0  0  0  0  0  0
  1  2  1  0
  2  3  2  3
  1  4  1  0
  4  5  1  0
  5  6  1  0
  2  7  1  0
  6  7  1  0
  3  8  1  0
  5  9  1  0
  9 10  2  0
  9 11  1  0
  8 12  1  0
  8 13  1  0
  8 14  1  0
 11 15  1  0
 15 16  1  0
 16 17  2  0
 17 18  1  0
 18 19  2  0
 19 20  1  0
 20 21  2  0
 21 16  1  0
M  END
$$$$
