No_8618-complexes_sdf/6BKW-FPZ/2024-09-17-14-21-01/
     RDKit          3D

 31 34  0  0  0  0  0  0  0  0999 V2000
   -7.7129    4.2099   27.0854 C   0  0  0  0  0  0  0  0  0  0  0  0
   -8.2112    3.0637   26.9225 C   0  0  0  0  0  0  0  0  0  0  0  0
   -9.4446    2.8304   26.1868 C   0  0  0  0  0  0  0  0  0  0  0  0
   -8.4697    5.3956   26.7238 C   0  0  0  0  0  0  0  0  0  0  0  0
   -9.6172    5.2111   25.9513 C   0  0  0  0  0  0  0  0  0  0  0  0
  -10.0424    3.9782   25.6873 C   0  0  0  0  0  0  0  0  0  0  0  0
   -7.5056    1.8167   27.4088 C   0  0  0  0  0  0  0  0  0  0  0  0
   -6.9121    0.9320   26.6423 C   0  0  0  0  0  0  0  0  0  0  0  0
   -6.9153   -0.1276   27.0525 C   0  0  0  0  0  0  0  0  0  0  0  0
   -6.3543   -1.2625   26.5318 C   0  0  0  0  0  0  0  0  0  0  0  0
   -7.9649    6.7510   27.0173 C   0  0  0  0  0  0  0  0  0  0  0  0
   -8.5050    7.7469   26.6995 F   0  0  0  0  0  0  0  0  0  0  0  0
   -6.9007    6.7548   27.7756 F   0  0  0  0  0  0  0  0  0  0  0  0
   -5.8420   -1.0217   25.2292 C   0  0  0  0  0  0  0  0  0  0  0  0
   -6.2415    0.0437   24.5565 C   0  0  0  0  0  0  0  0  0  0  0  0
   -6.7879    1.0846   25.2652 C   0  0  0  0  0  0  0  0  0  0  0  0
   -9.9391    1.2885   25.7946 Cl  0  0  0  0  0  0  0  0  0  0  0  0
  -11.2589    3.8286   24.8439 C   0  0  0  0  0  0  0  0  0  0  0  0
  -11.1448    4.1168   23.5073 C   0  0  0  0  0  0  0  0  0  0  0  0
  -12.1612    4.0854   22.6211 C   0  0  0  0  0  0  0  0  0  0  0  0
  -13.3911    3.6708   23.1576 C   0  0  0  0  0  0  0  0  0  0  0  0
  -12.4871    3.5023   25.3184 C   0  0  0  0  0  0  0  0  0  0  0  0
  -13.5641    3.4837   24.5298 C   0  0  0  0  0  0  0  0  0  0  0  0
  -12.8631    3.3731   26.6495 N   0  0  0  0  0  0  0  0  0  0  0  0
  -13.2689    2.5829   27.4516 C   0  0  0  0  0  0  0  0  0  0  0  0
  -13.1923    2.7123   28.8309 C   0  0  0  0  0  0  0  0  0  0  0  0
  -12.5545    4.0233   29.0309 C   0  0  0  0  0  0  0  0  0  0  0  0
  -12.2748    4.5315   27.6107 C   0  0  0  0  0  0  0  0  0  0  0  0
  -13.7776    1.3255   26.8845 C   0  0  0  0  0  0  0  0  0  0  0  0
  -14.1771    0.4128   27.3362 Cl  0  0  0  0  0  0  0  0  0  0  0  0
  -13.6795    1.3649   25.4467 O   0  0  0  0  0  0  0  0  0  0  0  0
  2  7  1  0
  7  8  1  0
  4 11  1  0
 11 12  1  0
 11 13  1  0
  3 17  1  0
  6 18  1  0
 22 24  1  0
 24 25  1  0
 25 26  2  0
 26 27  1  0
 24 28  1  0
 27 28  1  0
 25 29  1  0
 29 30  1  0
 29 31  2  0
 18 19  2  0
 19 20  1  0
 20 21  2  0
 21 23  1  0
 23 22  2  0
 22 18  1  0
  1  2  2  0
  2  3  1  0
  3  6  2  0
  6  5  1  0
  5  4  2  0
  4  1  1  0
  8  9  2  0
  9 10  1  0
 10 14  2  0
 14 15  1  0
 15 16  2  0
 16  8  1  0
M  END
$$$$
