No_8873-complexes_sdf/6BKW-FPZ/2024-09-17-14-21-01/
     RDKit          3D

 23 25  0  0  0  0  0  0  0  0999 V2000
   -7.9040    3.9820   27.1177 C   0  0  0  0  0  0  0  0  0  0  0  0
   -7.8663    4.8694   27.9238 C   0  0  0  0  0  0  0  0  0  0  0  0
   -9.0501    3.8017   26.2617 C   0  0  0  0  0  0  0  0  0  0  0  0
  -10.0189    4.7608   26.3707 C   0  0  0  0  0  0  0  0  0  0  0  0
   -8.6973    5.9722   27.8968 C   0  0  0  0  0  0  0  0  0  0  0  0
   -9.8216    5.8946   27.1241 C   0  0  0  0  0  0  0  0  0  0  0  0
   -9.1445    2.6271   25.4265 C   0  0  0  0  0  0  0  0  0  0  0  0
  -10.0991    1.9696   25.4849 N   0  0  0  0  0  0  0  0  0  0  0  0
  -11.0828    1.9029   25.8101 C   0  0  0  0  0  0  0  0  0  0  0  0
  -11.8784    0.6453   25.7516 C   0  0  0  0  0  0  0  0  0  0  0  0
   -9.8669    0.6523   24.5084 C   0  0  0  0  0  0  0  0  0  0  0  0
   -8.9651    0.4678   23.8309 C   0  0  0  0  0  0  0  0  0  0  0  0
  -11.0552   -0.1088   24.7175 C   0  0  1  0  0  0  0  0  0  0  0  0
   -7.7463   -0.3468   24.1250 C   0  0  0  0  0  0  0  0  0  0  0  0
   -7.5454   -0.7791   25.4491 C   0  0  0  0  0  0  0  0  0  0  0  0
   -6.3576   -1.4878   25.7529 C   0  0  0  0  0  0  0  0  0  0  0  0
   -5.9008   -1.7199   27.0610 C   0  0  0  0  0  0  0  0  0  0  0  0
   -6.7674   -1.2535   28.0999 C   0  0  0  0  0  0  0  0  0  0  0  0
   -7.9159   -0.4951   27.8256 C   0  0  0  0  0  0  0  0  0  0  0  0
   -8.2379   -0.2023   26.5049 C   0  0  0  0  0  0  0  0  0  0  0  0
  -11.3189   -1.3507   24.2847 C   0  0  0  0  0  0  0  0  0  0  0  0
  -11.2823   -1.6840   23.1148 C   0  0  0  0  0  0  0  0  0  0  0  0
  -11.5256   -3.0307   22.6121 C   0  0  0  0  0  0  0  0  0  0  0  0
  3  7  1  0
  7  8  1  0
  8  9  1  0
  9 10  2  0
  8 11  1  0
 11 12  1  0
 10 13  1  0
 13 11  1  1
 12 14  2  3
 14 15  1  0
 13 21  1  0
 21 22  2  3
 22 23  1  0
 15 16  2  0
 16 17  1  0
 17 18  2  0
 18 19  1  0
 19 20  2  0
 20 15  1  0
  1  2  2  0
  2  5  1  0
  5  6  2  0
  6  4  1  0
  4  3  2  0
  3  1  1  0
M  END
$$$$
