No_8722-complexes_sdf/6BKW-FPZ/2024-09-17-14-21-01/
     RDKit          3D

 12 13  0  0  0  0  0  0  0  0999 V2000
   -7.7129    4.2099   27.0854 C   0  0  0  0  0  0  0  0  0  0  0  0
   -8.2112    3.0637   26.9225 C   0  0  0  0  0  0  0  0  0  0  0  0
   -8.5108    5.3904   26.9436 C   0  0  0  0  0  0  0  0  0  0  0  0
   -9.7256    5.1955   26.3518 C   0  0  0  0  0  0  0  0  0  0  0  0
   -7.4704    1.8386   27.3272 C   0  0  0  0  0  0  0  0  0  0  0  0
   -9.5296    2.9550   26.4652 C   0  0  0  0  0  0  0  0  0  0  0  0
  -10.2465    4.0091   26.1867 C   0  0  0  0  0  0  0  0  0  0  0  0
   -6.0900    1.9760   27.7068 C   0  0  0  0  0  0  0  0  0  0  0  0
   -5.3410    0.8220   28.1058 C   0  0  0  0  0  0  0  0  0  0  0  0
   -5.9374   -0.4173   28.0458 C   0  0  0  0  0  0  0  0  0  0  0  0
   -7.9289    0.5329   27.3034 C   0  0  0  0  0  0  0  0  0  0  0  0
   -7.2604   -0.5215   27.7214 C   0  0  0  0  0  0  0  0  0  0  0  0
  2  5  1  0
  1  2  2  0
  2  6  1  0
  6  7  2  0
  7  4  1  0
  4  3  2  0
  3  1  1  0
  5  8  2  0
  8  9  1  0
  9 10  2  0
 10 12  1  0
 12 11  2  0
 11  5  1  0
M  END
$$$$
