No_8604-complexes_sdf/6BKW-FPZ/2024-09-17-14-21-01/
     RDKit          3D

 29 32  0  0  0  0  0  0  0  0999 V2000
   -7.7129    4.2099   27.0854 C   0  0  0  0  0  0  0  0  0  0  0  0
   -7.7814    5.1722   27.8972 C   0  0  0  0  0  0  0  0  0  0  0  0
   -7.3155    2.9699   27.6145 C   0  0  0  0  0  0  0  0  0  0  0  0
   -7.6814    1.8188   26.9581 C   0  0  0  0  0  0  0  0  0  0  0  0
   -8.7493    1.8056   26.3403 C   0  0  0  0  0  0  0  0  0  0  0  0
   -9.3899    2.9750   25.9038 C   0  0  0  0  0  0  0  0  0  0  0  0
   -8.9604    4.1020   26.4096 C   0  0  0  0  0  0  0  0  0  0  0  0
   -8.2404    6.4834   27.5492 N   0  0  0  0  0  0  0  0  0  0  0  0
   -9.3035    6.6681   26.7612 C   0  0  0  0  0  0  0  0  0  0  0  0
   -9.6552    5.4034   26.0857 C   0  0  0  0  0  0  0  0  0  0  0  0
   -6.9399    0.5434   27.4072 C   0  0  0  0  0  0  0  0  0  0  0  0
   -5.6380    0.5645   27.9041 C   0  0  0  0  0  0  0  0  0  0  0  0
   -4.9952   -0.5683   28.3464 C   0  0  0  0  0  0  0  0  0  0  0  0
   -5.6757   -1.7544   28.2447 C   0  0  0  0  0  0  0  0  0  0  0  0
   -7.4694   -0.7366   27.3925 C   0  0  0  0  0  0  0  0  0  0  0  0
   -6.9222   -1.8161   27.8138 C   0  0  0  0  0  0  0  0  0  0  0  0
   -3.5855   -0.4181   28.8916 C   0  0  0  0  0  0  0  0  0  0  0  0
   -3.6020   -0.1259   30.0742 F   0  0  0  0  0  0  0  0  0  0  0  0
   -2.9677   -1.6306   28.8171 F   0  0  0  0  0  0  0  0  0  0  0  0
   -2.8706    0.4655   28.1597 F   0  0  0  0  0  0  0  0  0  0  0  0
  -10.4202    3.0066   24.9053 C   0  0  0  0  0  0  0  0  0  0  0  0
  -11.6879    2.7163   25.2810 C   0  0  0  0  0  0  0  0  0  0  0  0
  -12.7331    2.9604   24.4914 C   0  0  0  0  0  0  0  0  0  0  0  0
  -12.4614    3.3265   23.1169 C   0  0  0  0  0  0  0  0  0  0  0  0
  -10.2253    3.5233   23.6031 C   0  0  0  0  0  0  0  0  0  0  0  0
  -11.2012    3.6866   22.7318 C   0  0  0  0  0  0  0  0  0  0  0  0
  -10.9124    4.1866   21.3749 C   0  0  0  0  0  0  0  0  0  0  0  0
   -9.6711    4.7227   21.2038 C   0  0  0  0  0  0  0  0  0  0  0  0
  -11.8826    3.8838   20.3812 C   0  0  0  0  0  0  0  0  0  0  0  0
  4 11  1  0
 13 17  1  0
 17 18  1  0
 17 19  1  0
 17 20  1  0
  6 21  1  0
 26 27  1  0
 27 28  1  0
 27 29  1  0
  1  2  2  0
  2  8  1  0
  8  9  2  0
  9 10  1  0
 10  7  2  0
 11 12  2  0
 12 13  1  0
 13 14  2  0
 14 16  1  0
 16 15  2  0
 15 11  1  0
 21 22  2  0
 22 23  1  0
 23 24  2  0
 24 26  1  0
 26 25  2  0
 25 21  1  0
  1  3  1  0
  3  4  2  0
  4  5  1  0
  5  6  2  0
  6  7  1  0
  7  1  1  0
M  END
$$$$
