No_8478-complexes_sdf/6BKW-FPZ/2024-09-17-14-21-01/
     RDKit          3D

  9  9  0  0  0  0  0  0  0  0999 V2000
   -7.7129    4.2099   27.0854 C   0  0  0  0  0  0  0  0  0  0  0  0
   -7.7814    5.1722   27.8972 C   0  0  0  0  0  0  0  0  0  0  0  0
   -8.7889    3.2468   27.2220 C   0  0  0  0  0  0  0  0  0  0  0  0
   -9.8367    3.4196   26.6050 C   0  0  0  0  0  0  0  0  0  0  0  0
   -8.9219    6.1622   27.4561 C   0  0  0  0  0  0  0  0  0  0  0  0
  -10.1200    3.4455   25.6167 C   0  0  0  0  0  0  0  0  0  0  0  0
   -9.1546    3.0403   24.5560 C   0  0  0  0  0  0  0  0  0  0  0  0
  -10.2558    5.7569   27.6035 C   0  0  0  0  0  0  0  0  0  0  0  0
  -10.7847    4.2716   27.5163 C   0  0  0  0  0  0  0  0  0  0  0  0
  1  2  1  0
  1  3  1  0
  3  4  1  0
  2  5  1  0
  4  6  2  3
  6  7  1  0
  5  8  1  0
  4  9  1  0
  8  9  1  0
M  END
$$$$
