No_8460-complexes_sdf/6BKW-FPZ/2024-09-17-14-21-01/
     RDKit          3D

 18 20  0  0  0  0  0  0  0  0999 V2000
   -7.9040    3.9820   27.1177 C   0  0  0  0  0  0  0  0  0  0  0  0
   -7.8663    4.8694   27.9238 C   0  0  0  0  0  0  0  0  0  0  0  0
   -7.4698    2.6989   27.4277 C   0  0  0  0  0  0  0  0  0  0  0  0
   -7.9683    1.5964   26.8266 C   0  0  0  0  0  0  0  0  0  0  0  0
   -8.9447    1.7923   25.8533 C   0  0  0  0  0  0  0  0  0  0  0  0
   -9.4405    2.9988   25.5757 C   0  0  0  0  0  0  0  0  0  0  0  0
   -8.9424    4.1117   26.2388 C   0  0  0  0  0  0  0  0  0  0  0  0
   -8.3103    6.1970   27.6444 N   0  0  0  0  0  0  0  0  0  0  0  0
   -9.2017    6.5264   26.7040 C   0  0  0  0  0  0  0  0  0  0  0  0
   -9.5492    5.4018   25.9329 C   0  0  0  0  0  0  0  0  0  0  0  0
   -7.3783    0.2539   27.0964 C   0  0  0  0  0  0  0  0  0  0  0  0
   -6.0866    0.1289   27.5719 C   0  0  0  0  0  0  0  0  0  0  0  0
   -5.1782    1.2641   27.7716 C   0  0  0  0  0  0  0  0  0  0  0  0
   -5.9606    2.5894   27.8030 C   0  0  0  0  0  0  0  0  0  0  0  0
   -4.1529    1.4570   28.0181 O   0  0  0  0  0  0  0  0  0  0  0  0
  -10.4960    3.1365   24.5350 C   0  0  0  0  0  0  0  0  0  0  0  0
  -11.6242    3.4062   24.8367 N   0  0  0  0  0  0  0  0  0  0  0  0
  -12.6178    3.6465   23.9037 C   0  0  0  0  0  0  0  0  0  0  0  0
  4 11  1  0
 12 13  1  0
  3 14  1  0
 13 14  1  0
 13 15  2  0
  6 16  1  0
 16 17  2  3
 17 18  1  0
 12 11  1  0
  1  2  2  0
  2  8  1  0
  8  9  2  0
  9 10  1  0
 10  7  2  0
  1  3  1  0
  3  4  2  0
  4  5  1  0
  5  6  2  0
  6  7  1  0
  7  1  1  0
M  END
$$$$
