No_8142-complexes_sdf/6BKW-FPZ/2024-09-17-14-21-01/
     RDKit          3D

 18 20  0  0  0  0  0  0  0  0999 V2000
   -7.9040    3.9820   27.1177 C   0  0  0  0  0  0  0  0  0  0  0  0
   -7.8663    4.8694   27.9238 C   0  0  0  0  0  0  0  0  0  0  0  0
   -9.0501    3.8017   26.2617 C   0  0  0  0  0  0  0  0  0  0  0  0
   -9.1826    2.7026   25.3575 C   0  0  0  0  0  0  0  0  0  0  0  0
   -8.6940    6.0131   27.8614 C   0  0  0  0  0  0  0  0  0  0  0  0
   -9.9755    4.8547   26.2361 C   0  0  0  0  0  0  0  0  0  0  0  0
   -9.7463    5.9398   27.0364 C   0  0  0  0  0  0  0  0  0  0  0  0
  -10.0921    2.0185   25.5365 N   0  0  0  0  0  0  0  0  0  0  0  0
  -10.9586    1.9310   26.2423 C   0  0  0  0  0  0  0  0  0  0  0  0
  -11.4899    1.5029   26.9800 C   0  0  0  0  0  0  0  0  0  0  0  0
  -12.6332    2.0047   27.7174 C   0  0  0  0  0  0  0  0  0  0  0  0
  -13.2648    1.3897   28.8381 C   0  0  0  0  0  0  0  0  0  0  0  0
  -11.2687    0.1398   27.6621 C   0  0  0  0  0  0  0  0  0  0  0  0
  -11.8752   -0.5308   28.6871 C   0  0  0  0  0  0  0  0  0  0  0  0
  -12.9169    0.1503   29.2474 C   0  0  0  0  0  0  0  0  0  0  0  0
  -10.2519    0.9537   24.4258 C   0  0  0  0  0  0  0  0  0  0  0  0
  -11.7208    3.2764   26.0440 N   0  0  0  0  0  0  0  0  0  0  0  0
  -12.7753    3.2017   27.1340 N   0  0  0  0  0  0  0  0  0  0  0  0
  3  4  1  0
  4  8  1  0
  8  9  1  0
  9 10  1  0
  8 16  1  0
  9 17  2  0
 11 18  1  0
 17 18  1  0
 10 11  1  0
 11 12  2  0
 12 15  1  0
 15 14  2  0
 14 13  1  0
 13 10  2  0
  1  2  2  0
  2  5  1  0
  5  7  2  0
  7  6  1  0
  6  3  2  0
  3  1  1  0
M  END
$$$$
