No_8010-complexes_sdf/6BKW-FPZ/2024-09-17-14-21-01/
     RDKit          3D

 29 33  0  0  0  0  0  0  0  0999 V2000
   -7.2496    3.8871   27.4508 C   0  0  0  0  0  0  0  0  0  0  0  0
   -7.6161    2.7143   27.1523 C   0  0  0  0  0  0  0  0  0  0  0  0
   -8.8827    2.2318   27.1220 C   0  0  0  0  0  0  0  0  0  0  0  0
   -8.2837    4.9116   27.6108 C   0  0  0  0  0  0  0  0  0  0  0  0
   -9.6088    4.5175   27.5560 C   0  0  0  0  0  0  0  0  0  0  0  0
   -9.9243    3.2149   27.3938 C   0  0  0  0  0  0  0  0  0  0  0  0
   -7.9091    6.1407   27.9093 F   0  0  0  0  0  0  0  0  0  0  0  0
   -9.0711    0.7724   26.8936 C   0  0  0  0  0  0  0  0  0  0  0  0
  -10.0974    0.2202   27.3303 C   0  0  0  0  0  0  0  0  0  0  0  0
  -10.3082   -1.2152   27.2221 C   0  0  0  0  0  0  0  0  0  0  0  0
   -9.3276   -1.9007   26.5627 C   0  0  0  0  0  0  0  0  0  0  0  0
   -8.1510   -0.0201   26.3214 C   0  0  0  0  0  0  0  0  0  0  0  0
   -8.2294   -1.2829   26.1194 C   0  0  0  0  0  0  0  0  0  0  0  0
  -11.5444   -1.8549   27.7748 C   0  0  0  0  0  0  0  0  0  0  0  0
  -11.7671   -2.9042   27.7022 C   0  0  0  0  0  0  0  0  0  0  0  0
  -12.9566   -3.4975   28.2659 C   0  0  0  0  0  0  0  0  0  0  0  0
  -13.8418   -2.6316   28.9329 C   0  0  0  0  0  0  0  0  0  0  0  0
  -12.5280   -0.9831   28.5965 C   0  0  0  0  0  0  0  0  0  0  0  0
  -13.5685   -1.3758   29.1114 C   0  0  0  0  0  0  0  0  0  0  0  0
  -15.1215   -3.2820   29.5210 C   0  0  1  0  0  0  0  0  0  0  0  0
  -16.0078   -2.6260   30.8903 Br  0  0  0  0  0  0  0  0  0  0  0  0
  -15.6897   -4.4244   28.8907 C   0  0  0  0  0  0  0  0  0  0  0  0
  -17.0315   -4.4944   28.9197 C   0  0  0  0  0  0  0  0  0  0  0  0
  -17.6215   -5.6011   28.3152 C   0  0  0  0  0  0  0  0  0  0  0  0
  -16.7534   -6.5038   27.6273 C   0  0  0  0  0  0  0  0  0  0  0  0
  -15.4164   -6.3379   27.5992 C   0  0  0  0  0  0  0  0  0  0  0  0
  -14.7998   -5.2788   28.2210 C   0  0  0  0  0  0  0  0  0  0  0  0
  -13.5368   -4.8335   27.8804 C   0  0  0  0  0  0  0  0  0  0  0  0
  -12.6628   -5.6189   27.2593 O   0  0  0  0  0  0  0  0  0  0  0  0
  4  7  1  0
  3  8  1  0
 10 14  1  0
 17 20  1  0
 20 21  1  6
 20 22  1  0
 16 28  1  0
 27 28  1  0
 28 29  2  0
  1  2  2  0
  2  3  1  0
  3  6  2  0
  6  5  1  0
  5  4  2  0
  4  1  1  0
 22 23  2  0
 23 24  1  0
 24 25  2  0
 25 26  1  0
 26 27  2  0
 27 22  1  0
 14 15  2  0
 15 16  1  0
 16 17  2  0
 17 19  1  0
 19 18  2  0
 18 14  1  0
  8  9  2  0
  9 10  1  0
 10 11  2  0
 11 13  1  0
 13 12  2  0
 12  8  1  0
M  END
$$$$
