No_8704-complexes_sdf/6BKW-FPZ/2024-09-17-14-21-01/
     RDKit          3D

 15 16  0  0  0  0  0  0  0  0999 V2000
   -7.7129    4.2099   27.0854 C   0  0  0  0  0  0  0  0  0  0  0  0
   -8.2112    3.0637   26.9225 C   0  0  0  0  0  0  0  0  0  0  0  0
   -9.4446    2.8304   26.1868 C   0  0  0  0  0  0  0  0  0  0  0  0
   -8.4697    5.3956   26.7238 C   0  0  0  0  0  0  0  0  0  0  0  0
   -9.6172    5.2111   25.9513 C   0  0  0  0  0  0  0  0  0  0  0  0
  -10.0424    3.9782   25.6873 C   0  0  0  0  0  0  0  0  0  0  0  0
   -7.8256    6.9333   27.0525 Cl  0  0  0  0  0  0  0  0  0  0  0  0
   -7.4841    1.8412   27.3998 C   0  0  0  0  0  0  0  0  0  0  0  0
   -6.8432    0.9750   26.6246 C   0  0  0  0  0  0  0  0  0  0  0  0
   -5.9913    0.0452   27.2322 C   0  0  0  0  0  0  0  0  0  0  0  0
   -4.7010    0.1648   26.9106 C   0  0  0  0  0  0  0  0  0  0  0  0
   -6.4131   -0.9666   28.1678 C   0  0  0  0  0  0  0  0  0  0  0  0
   -5.4504   -1.7785   28.7840 C   0  0  0  0  0  0  0  0  0  0  0  0
   -3.6718   -0.6788   27.4812 C   0  0  0  0  0  0  0  0  0  0  0  0
   -4.0757   -1.6436   28.4482 C   0  0  0  0  0  0  0  0  0  0  0  0
  4  7  1  0
  2  8  1  0
  8  9  1  0
  9 10  1  0
  1  2  2  0
  2  3  1  0
  3  6  2  0
  6  5  1  0
  5  4  2  0
  4  1  1  0
 10 11  2  0
 11 14  1  0
 14 15  2  0
 15 13  1  0
 13 12  2  0
 12 10  1  0
M  END
$$$$
