No_8128-complexes_sdf/6BKW-FPZ/2024-09-17-14-21-01/
     RDKit          3D

 22 24  0  0  0  0  0  0  0  0999 V2000
   -7.7129    4.2099   27.0854 C   0  0  0  0  0  0  0  0  0  0  0  0
   -8.9133    4.4736   27.0998 C   0  0  0  0  0  0  0  0  0  0  0  0
   -9.4643    5.5426   27.7628 C   0  0  0  0  0  0  0  0  0  0  0  0
   -6.8373    4.9942   27.9785 C   0  0  0  0  0  0  0  0  0  0  0  0
   -7.3717    6.0428   28.6744 C   0  0  0  0  0  0  0  0  0  0  0  0
   -8.6869    6.3937   28.5345 C   0  0  0  0  0  0  0  0  0  0  0  0
   -9.8029    3.6153   26.2122 C   0  0  0  0  0  0  0  0  0  0  0  0
  -10.1002    2.3701   26.5024 C   0  0  0  0  0  0  0  0  0  0  0  0
  -10.8218    1.5251   25.6423 C   0  0  0  0  0  0  0  0  0  0  0  0
  -11.3643    2.0969   24.4882 C   0  0  0  0  0  0  0  0  0  0  0  0
  -11.0766    3.4459   24.1676 C   0  0  0  0  0  0  0  0  0  0  0  0
  -10.3063    4.2543   25.0134 C   0  0  0  0  0  0  0  0  0  0  0  0
  -11.6315    4.0637   22.9446 C   0  0  0  0  0  0  0  0  0  0  0  0
  -11.2835    5.0615   22.7025 C   0  0  0  0  0  0  0  0  0  0  0  0
  -10.2379    5.8559   23.4010 C   0  0  0  0  0  0  0  0  0  0  0  0
   -9.8457    5.4894   24.5712 C   0  0  0  0  0  0  0  0  0  0  0  0
   -9.6182    1.7499   27.8204 C   0  0  0  0  0  0  0  0  0  0  0  0
   -9.4020    0.3467   27.7810 C   0  0  0  0  0  0  0  0  0  0  0  0
   -8.4107   -0.1843   27.9734 C   0  0  0  0  0  0  0  0  0  0  0  0
   -8.2685   -1.6822   28.1004 C   0  0  0  0  0  0  0  0  0  0  0  0
   -9.4896   -2.3472   27.9638 C   0  0  0  0  0  0  0  0  0  0  0  0
  -10.6413   -1.7415   27.7434 C   0  0  0  0  0  0  0  0  0  0  0  0
  2  7  1  0
  8 17  1  0
 17 18  2  3
 18 19  1  0
 19 20  2  3
 20 21  1  0
 21 22  2  0
 12 16  2  0
 16 15  1  0
 15 14  2  0
 14 13  1  0
 13 11  2  0
  1  2  2  0
  2  3  1  0
  3  6  2  0
  6  5  1  0
  5  4  2  0
  4  1  1  0
  7  8  2  0
  8  9  1  0
  9 10  2  0
 10 11  1  0
 11 12  1  0
 12  7  1  0
M  END
$$$$
