No_8308-complexes_sdf/6BKW-FPZ/2024-09-17-14-21-01/
     RDKit          3D

 40 46  0  0  0  0  0  0  0  0999 V2000
   -7.2496    3.8871   27.4508 C   0  0  0  0  0  0  0  0  0  0  0  0
   -8.5096    4.0291   27.2770 C   0  0  0  0  0  0  0  0  0  0  0  0
   -9.3451    2.8786   26.9046 C   0  0  0  0  0  0  0  0  0  0  0  0
  -10.6709    3.0505   26.6789 C   0  0  0  0  0  0  0  0  0  0  0  0
   -6.5391    4.9920   28.0504 C   0  0  0  0  0  0  0  0  0  0  0  0
  -11.2332    4.2630   26.9705 C   0  0  0  0  0  0  0  0  0  0  0  0
   -9.2958    5.2009   27.5590 C   0  0  0  0  0  0  0  0  0  0  0  0
  -10.5857    5.3502   27.4352 C   0  0  0  0  0  0  0  0  0  0  0  0
   -7.2598    6.1967   28.2428 C   0  0  0  0  0  0  0  0  0  0  0  0
   -8.5145    6.3174   28.0050 C   0  0  0  0  0  0  0  0  0  0  0  0
   -8.7020    1.6039   26.5941 C   0  0  0  0  0  0  0  0  0  0  0  0
   -9.0650    0.6645   25.9045 C   0  0  0  0  0  0  0  0  0  0  0  0
   -8.3474   -0.5070   25.6326 C   0  0  0  0  0  0  0  0  0  0  0  0
   -7.0735   -0.6091   26.1819 C   0  0  0  0  0  0  0  0  0  0  0  0
   -6.5349    0.3651   26.9587 C   0  0  0  0  0  0  0  0  0  0  0  0
   -7.2759    1.5055   27.2103 C   0  0  0  0  0  0  0  0  0  0  0  0
   -6.6608    2.6864   27.6283 N   0  0  0  0  0  0  0  0  0  0  0  0
   -8.9797   -1.6030   24.8973 C   0  0  0  0  0  0  0  0  0  0  0  0
   -9.7505   -2.3707   25.4269 C   0  0  0  0  0  0  0  0  0  0  0  0
   -9.9966   -2.6362   26.5146 C   0  0  0  0  0  0  0  0  0  0  0  0
  -10.6147   -3.0367   27.3826 C   0  0  0  0  0  0  0  0  0  0  0  0
  -11.0846   -3.1536   28.6650 C   0  0  0  0  0  0  0  0  0  0  0  0
  -11.0466   -2.9172   29.8457 C   0  0  0  0  0  0  0  0  0  0  0  0
  -11.1577   -2.6613   31.0567 C   0  0  0  0  0  0  0  0  0  0  0  0
  -10.1784   -2.6091   31.8722 C   0  0  0  0  0  0  0  0  0  0  0  0
  -10.3323   -2.4484   33.3530 C   0  0  0  0  0  0  0  0  0  0  0  0
  -11.6704   -2.2342   33.7570 C   0  0  0  0  0  0  0  0  0  0  0  0
  -12.7149   -2.2416   32.8593 C   0  0  0  0  0  0  0  0  0  0  0  0
  -12.4881   -2.4399   31.5782 C   0  0  0  0  0  0  0  0  0  0  0  0
   -8.5978   -1.5277   23.4685 C   0  0  0  0  0  0  0  0  0  0  0  0
   -9.3093   -1.8419   22.5737 C   0  0  0  0  0  0  0  0  0  0  0  0
  -10.3848   -2.7884   22.9965 C   0  0  0  0  0  0  0  0  0  0  0  0
  -10.5886   -3.0284   24.3208 C   0  0  0  0  0  0  0  0  0  0  0  0
  -11.4197   -4.2715   26.8341 C   0  0  1  0  0  0  0  0  0  0  0  0
  -12.3513   -4.6135   26.5427 C   0  0  0  0  0  0  0  0  0  0  0  0
  -12.7374   -5.8109   25.9576 C   0  0  0  0  0  0  0  0  0  0  0  0
  -11.5402   -6.3566   25.5864 C   0  0  1  0  0  0  0  0  0  0  0  0
  -10.4910   -5.3721   26.1386 C   0  0  0  0  0  0  0  0  0  0  0  0
  -11.1419   -7.5269   24.9552 C   0  0  0  0  0  0  0  0  0  0  0  0
  -11.5680   -7.9881   24.0695 O   0  0  0  0  0  0  0  0  0  0  0  0
  3 11  1  0
  1 17  1  0
 16 17  1  0
 13 18  1  0
 20 21  1  0
 21 22  2  3
 22 23  1  0
 21 34  1  0
 34 35  1  0
 35 36  2  0
 36 37  1  0
 34 38  1  6
 37 38  1  0
 37 39  1  1
 39 40  2  0
 23 24  1  0
 20 19  1  0
 24 25  2  0
 25 26  1  0
 26 27  2  0
 27 28  1  0
 28 29  2  0
 29 24  1  0
 18 19  2  0
 19 33  1  0
 33 32  2  0
 32 31  1  0
 31 30  2  0
 30 18  1  0
  1  2  2  0
  7 10  2  0
 10  9  1  0
  9  5  2  0
  5  1  1  0
 11 12  2  0
 12 13  1  0
 13 14  2  0
 14 15  1  0
 15 16  2  0
 16 11  1  0
  2  3  1  0
  3  4  2  0
  4  6  1  0
  6  8  2  0
  8  7  1  0
  7  2  1  0
M  END
$$$$
