No_8439-complexes_sdf/6BKW-FPZ/2024-09-17-14-21-01/
     RDKit          3D

 22 23  0  0  0  0  0  0  0  0999 V2000
   -7.7129    4.2099   27.0854 C   0  0  0  0  0  0  0  0  0  0  0  0
   -8.9133    4.4736   27.0998 C   0  0  0  0  0  0  0  0  0  0  0  0
   -9.7135    3.9633   26.0300 C   0  0  0  0  0  0  0  0  0  0  0  0
   -6.8420    4.9760   28.0851 C   0  0  0  0  0  0  0  0  0  0  0  0
  -10.9164    3.4776   26.1172 C   0  0  0  0  0  0  0  0  0  0  0  0
  -11.6897    3.8137   27.2914 C   0  0  0  0  0  0  0  0  0  0  0  0
  -10.9876    4.2901   28.4232 C   0  0  0  0  0  0  0  0  0  0  0  0
   -9.6492    4.5388   28.3533 C   0  0  0  0  0  0  0  0  0  0  0  0
  -13.1233    3.4856   27.4111 C   0  0  0  0  0  0  0  0  0  0  0  0
  -13.4730    2.7412   28.0509 C   0  0  0  0  0  0  0  0  0  0  0  0
  -12.5985    1.9108   28.9727 C   0  0  2  0  0  0  0  0  0  0  0  0
  -13.1439    0.7647   29.7248 C   0  0  0  0  0  0  0  0  0  0  0  0
  -12.7046   -0.3744   29.2272 C   0  0  0  0  0  0  0  0  0  0  0  0
  -11.4870   -0.4477   28.5024 C   0  0  0  0  0  0  0  0  0  0  0  0
  -10.9643    0.7080   27.9005 C   0  0  0  0  0  0  0  0  0  0  0  0
  -11.7735    2.6213   29.7791 F   0  0  0  0  0  0  0  0  0  0  0  0
   -9.6182    0.3025   27.1796 C   0  0  0  0  0  0  0  0  0  0  0  0
   -9.0429    1.2106   26.3269 C   0  0  0  0  0  0  0  0  0  0  0  0
   -7.8067    0.7952   25.6733 C   0  0  0  0  0  0  0  0  0  0  0  0
   -7.1913   -0.3732   26.0072 C   0  0  0  0  0  0  0  0  0  0  0  0
   -7.7962   -1.2287   26.9220 C   0  0  0  0  0  0  0  0  0  0  0  0
   -8.9685   -0.8790   27.5382 C   0  0  0  0  0  0  0  0  0  0  0  0
  1  2  1  0
  1  4  1  0
  6  9  1  0
  9 10  2  3
 10 11  1  0
 11 12  1  0
 12 13  1  0
 13 14  1  0
 14 15  2  3
 11 16  1  1
 15 17  1  0
 17 18  2  0
 18 19  1  0
 19 20  2  0
 20 21  1  0
 21 22  2  0
 22 17  1  0
  2  3  2  0
  3  5  1  0
  5  6  2  0
  6  7  1  0
  7  8  2  0
  8  2  1  0
M  END
$$$$
