No_85-complexes_sdf/6BKW-FPZ/2024-09-17-14-21-01/
     RDKit          3D

 21 23  0  0  0  0  0  0  0  0999 V2000
   -7.9040    3.9820   27.1177 C   0  0  0  0  0  0  0  0  0  0  0  0
   -9.0711    4.3164   27.0630 C   0  0  0  0  0  0  0  0  0  0  0  0
   -9.5182    5.5541   27.5777 C   0  0  0  0  0  0  0  0  0  0  0  0
   -6.9424    4.7983   27.8424 C   0  0  0  0  0  0  0  0  0  0  0  0
   -7.3526    5.9739   28.3909 C   0  0  0  0  0  0  0  0  0  0  0  0
   -8.6479    6.3742   28.2169 C   0  0  0  0  0  0  0  0  0  0  0  0
  -10.0621    3.4422   26.3345 C   0  0  0  0  0  0  0  0  0  0  0  0
   -9.6335    2.6185   25.4370 C   0  0  0  0  0  0  0  0  0  0  0  0
  -10.4644    2.0049   24.4699 C   0  0  0  0  0  0  0  0  0  0  0  0
  -11.8019    2.3414   24.4925 C   0  0  0  0  0  0  0  0  0  0  0  0
  -12.2598    3.2960   25.3832 C   0  0  0  0  0  0  0  0  0  0  0  0
  -11.3961    3.9667   26.2509 C   0  0  0  0  0  0  0  0  0  0  0  0
   -9.9694    0.9645   23.5517 C   0  0  0  0  0  0  0  0  0  0  0  0
   -9.9202    1.2539   22.2712 C   0  0  0  0  0  0  0  0  0  0  0  0
   -9.3967    0.3435   21.3397 C   0  0  0  0  0  0  0  0  0  0  0  0
   -8.8568   -0.8940   21.7904 C   0  0  0  0  0  0  0  0  0  0  0  0
   -9.3337   -0.2023   24.0438 C   0  0  0  0  0  0  0  0  0  0  0  0
   -8.8150   -1.1207   23.1849 C   0  0  0  0  0  0  0  0  0  0  0  0
   -8.3214   -1.8226   20.8301 C   0  0  0  0  0  0  0  0  0  0  0  0
   -8.7842   -1.9993   19.6280 C   0  0  0  0  0  0  0  0  0  0  0  0
   -8.1984   -2.9461   18.7023 C   0  0  0  0  0  0  0  0  0  0  0  0
  2  7  1  0
  9 13  1  0
 16 19  1  0
 19 20  2  3
 20 21  1  0
  1  2  2  0
  2  3  1  0
  3  6  2  0
  6  5  1  0
  5  4  2  0
  4  1  1  0
 13 14  2  0
 14 15  1  0
 15 16  2  0
 16 18  1  0
 18 17  2  0
 17 13  1  0
  7  8  2  0
  8  9  1  0
  9 10  2  0
 10 11  1  0
 11 12  2  0
 12  7  1  0
M  END
$$$$
