No_8978-complexes_sdf/6BKW-FPZ/2024-09-17-14-21-01/
     RDKit          3D

 27 30  0  0  0  0  0  0  0  0999 V2000
   -7.9040    3.9820   27.1177 C   0  0  0  0  0  0  0  0  0  0  0  0
   -9.0711    4.3164   27.0630 C   0  0  0  0  0  0  0  0  0  0  0  0
   -9.9692    3.7224   26.1073 C   0  0  0  0  0  0  0  0  0  0  0  0
   -6.9787    4.6761   28.1003 C   0  0  0  0  0  0  0  0  0  0  0  0
   -9.4538    2.6801   25.3673 C   0  0  0  0  0  0  0  0  0  0  0  0
   -8.1927    2.1957   25.6621 C   0  0  0  0  0  0  0  0  0  0  0  0
   -7.4333    2.8255   26.6299 C   0  0  0  0  0  0  0  0  0  0  0  0
  -10.3066    1.9975   24.3777 C   0  0  0  0  0  0  0  0  0  0  0  0
  -10.6559    2.6408   23.2832 C   0  0  0  0  0  0  0  0  0  0  0  0
  -11.1635    2.0505   22.1367 C   0  0  0  0  0  0  0  0  0  0  0  0
  -11.0435    1.0435   22.0394 C   0  0  0  0  0  0  0  0  0  0  0  0
  -10.5661    0.0607   23.0112 C   0  0  0  0  0  0  0  0  0  0  0  0
  -10.0287    0.6194   24.1673 C   0  0  0  0  0  0  0  0  0  0  0  0
   -7.4732    5.8156   28.6559 N   0  0  0  0  0  0  0  0  0  0  0  0
   -5.9096    4.1309   28.4772 O   0  0  0  0  0  0  0  0  0  0  0  0
  -10.7421    4.0591   23.3780 F   0  0  0  0  0  0  0  0  0  0  0  0
   -9.4513   -0.3250   25.1428 C   0  0  0  0  0  0  0  0  0  0  0  0
  -10.1095   -0.4428   26.2785 C   0  0  0  0  0  0  0  0  0  0  0  0
  -10.6519   -1.5429   26.5684 C   0  0  0  0  0  0  0  0  0  0  0  0
  -11.3895   -1.7599   27.8898 C   0  0  0  0  0  0  0  0  0  0  0  0
  -11.4382   -0.6558   28.7823 C   0  0  0  0  0  0  0  0  0  0  0  0
  -10.8459    0.5684   28.4201 C   0  0  0  0  0  0  0  0  0  0  0  0
  -10.2288    0.6899   27.2894 C   0  0  0  0  0  0  0  0  0  0  0  0
   -8.4489   -0.9882   24.8392 O   0  0  0  0  0  0  0  0  0  0  0  0
   -9.5783    5.6158   27.6082 C   0  0  0  0  0  0  0  0  0  0  0  0
   -8.6610    6.3335   28.3899 C   0  0  0  0  0  0  0  0  0  0  0  0
  -11.9312   -2.8832   28.1523 F   0  0  0  0  0  0  0  0  0  0  0  0
  5  8  1  0
  4 15  1  0
  9 16  1  0
 13 17  1  0
 17 18  1  0
 17 24  2  0
 20 27  1  0
 18 19  2  0
 19 20  1  0
 20 21  2  0
 21 22  1  0
 22 23  2  0
 23 18  1  0
  8  9  2  0
  9 10  1  0
 10 11  2  0
 11 12  1  0
 12 13  2  0
 13  8  1  0
  2 25  1  0
 25 26  2  0
 26 14  1  0
 14  4  2  0
  4  1  1  0
  1  2  1  0
  2  3  2  0
  3  5  1  0
  5  6  2  0
  6  7  1  0
  7  1  2  0
M  END
$$$$
