No_8202-complexes_sdf/6BKW-FPZ/2024-09-17-14-21-01/
     RDKit          3D

 25 28  0  0  0  0  0  0  0  0999 V2000
   -7.7129    4.2099   27.0854 C   0  0  0  0  0  0  0  0  0  0  0  0
   -7.7814    5.1722   27.8972 C   0  0  0  0  0  0  0  0  0  0  0  0
   -8.8998    3.8713   26.3707 C   0  0  0  0  0  0  0  0  0  0  0  0
   -8.9563    2.6796   25.5490 C   0  0  0  0  0  0  0  0  0  0  0  0
   -8.8131    6.1334   27.9344 C   0  0  0  0  0  0  0  0  0  0  0  0
   -9.9804    5.8121   27.1929 C   0  0  0  0  0  0  0  0  0  0  0  0
   -9.9861    4.6836   26.4532 C   0  0  0  0  0  0  0  0  0  0  0  0
   -9.7373    1.7168   26.0677 C   0  0  0  0  0  0  0  0  0  0  0  0
   -9.4817    0.4941   25.7320 C   0  0  0  0  0  0  0  0  0  0  0  0
   -8.7256    0.0871   24.9268 C   0  0  0  0  0  0  0  0  0  0  0  0
   -8.0026   -1.0732   24.9812 C   0  0  0  0  0  0  0  0  0  0  0  0
   -6.8699   -1.3476   24.0653 C   0  0  0  0  0  0  0  0  0  0  0  0
   -6.7565   -0.5305   22.9255 C   0  0  0  0  0  0  0  0  0  0  0  0
   -7.6054    0.5578   22.7726 C   0  0  0  0  0  0  0  0  0  0  0  0
   -8.4767    0.9009   23.7052 C   0  0  0  0  0  0  0  0  0  0  0  0
  -10.0864   -0.5964   26.6442 C   0  0  0  0  0  0  0  0  0  0  0  0
   -9.4273   -1.0253   27.6383 C   0  0  0  0  0  0  0  0  0  0  0  0
  -10.0219   -1.9271   28.6075 C   0  0  0  0  0  0  0  0  0  0  0  0
   -9.2731   -2.4475   29.6628 C   0  0  0  0  0  0  0  0  0  0  0  0
   -7.8891   -2.2328   29.7367 C   0  0  0  0  0  0  0  0  0  0  0  0
   -7.2729   -1.3937   28.8021 C   0  0  0  0  0  0  0  0  0  0  0  0
   -8.0046   -0.8534   27.7965 C   0  0  0  0  0  0  0  0  0  0  0  0
  -11.4410    0.0867   27.1740 C   0  0  0  0  0  0  0  0  0  0  0  0
  -10.8683    2.0454   26.9880 C   0  0  0  0  0  0  0  0  0  0  0  0
  -11.6011    1.3464   27.5114 C   0  0  0  0  0  0  0  0  0  0  0  0
  3  4  1  0
  4  8  1  0
  9 10  1  0
 16 17  1  0
 17 18  2  0
 18 19  1  0
 19 20  2  0
 20 21  1  0
 21 22  2  0
 22 17  1  0
 10 11  2  0
 11 12  1  0
 12 13  2  0
 13 14  1  0
 14 15  2  0
 15 10  1  0
  1  2  2  0
  2  5  1  0
  5  6  2  0
  6  7  1  0
  7  3  2  0
  3  1  1  0
  8  9  2  0
  9 16  1  0
 16 23  2  0
 23 25  1  0
 25 24  2  0
 24  8  1  0
M  END
$$$$
