No_8730-complexes_sdf/6BKW-FPZ/2024-09-17-14-21-01/
     RDKit          3D

 18 19  0  0  0  0  0  0  0  0999 V2000
   -7.9040    3.9820   27.1177 C   0  0  0  0  0  0  0  0  0  0  0  0
   -7.8663    4.8694   27.9238 C   0  0  0  0  0  0  0  0  0  0  0  0
   -9.0491    3.8523   26.2542 C   0  0  0  0  0  0  0  0  0  0  0  0
   -8.7661    5.9491   27.9690 C   0  0  0  0  0  0  0  0  0  0  0  0
   -9.9295    4.8502   26.2323 C   0  0  0  0  0  0  0  0  0  0  0  0
   -9.8077    5.9288   27.0933 C   0  0  0  0  0  0  0  0  0  0  0  0
   -7.0146    2.9513   27.1368 F   0  0  0  0  0  0  0  0  0  0  0  0
   -9.1130    2.5493   25.1061 Cl  0  0  0  0  0  0  0  0  0  0  0  0
  -10.9156    4.8421   25.3250 O   0  0  0  0  0  0  0  0  0  0  0  0
  -10.6472    4.6840   24.0655 C   0  0  1  0  0  0  0  0  0  0  0  0
  -11.2113    3.4337   23.4775 C   0  0  0  0  0  0  0  0  0  0  0  0
  -12.0080    3.6816   22.5322 C   0  0  0  0  0  0  0  0  0  0  0  0
  -12.4701    5.0034   22.2335 C   0  0  0  0  0  0  0  0  0  0  0  0
  -10.5272    5.6554   23.2251 O   0  0  0  0  0  0  0  0  0  0  0  0
  -11.2605    5.6564   22.0770 C   0  0  0  0  0  0  0  0  0  0  0  0
  -12.9178    2.6123   22.0248 C   0  0  0  0  0  0  0  0  0  0  0  0
  -13.1520    1.4843   22.7222 C   0  0  0  0  0  0  0  0  0  0  0  0
  -13.8959    0.4300   22.1735 C   0  0  0  0  0  0  0  0  0  0  0  0
  1  7  1  0
  3  8  1  0
  5  9  1  0
 10  9  1  1
 10 11  1  0
 11 12  2  0
 12 13  1  0
 10 14  1  0
 13 15  1  0
 14 15  1  0
 12 16  1  0
 16 17  2  3
 17 18  1  0
  1  2  2  0
  2  4  1  0
  4  6  2  0
  6  5  1  0
  5  3  2  0
  3  1  1  0
M  END
$$$$
