No_8011-complexes_sdf/6BKW-FPZ/2024-09-17-14-21-01/
     RDKit          3D

 40 45  0  0  0  0  0  0  0  0999 V2000
   -7.9040    3.9820   27.1177 C   0  0  0  0  0  0  0  0  0  0  0  0
   -8.2057    2.8231   26.8733 C   0  0  0  0  0  0  0  0  0  0  0  0
   -7.0130    4.3706   28.1140 C   0  0  0  0  0  0  0  0  0  0  0  0
   -7.4093    1.7370   27.3857 C   0  0  0  0  0  0  0  0  0  0  0  0
   -6.1712    2.1248   28.0064 C   0  0  0  0  0  0  0  0  0  0  0  0
   -5.1940    1.1281   28.3853 C   0  0  0  0  0  0  0  0  0  0  0  0
   -5.9472    3.5021   28.3510 C   0  0  0  0  0  0  0  0  0  0  0  0
   -4.5245    0.4145   27.5568 C   0  0  0  0  0  0  0  0  0  0  0  0
   -3.5060   -0.4882   27.9650 C   0  0  0  0  0  0  0  0  0  0  0  0
   -8.9625    5.0889   26.7217 C   0  0  0  0  0  0  0  0  0  0  0  0
   -9.0979    6.2563   27.4591 C   0  0  0  0  0  0  0  0  0  0  0  0
   -9.5649    4.9094   25.4533 C   0  0  0  0  0  0  0  0  0  0  0  0
   -3.2086   -0.6720   29.3071 C   0  0  0  0  0  0  0  0  0  0  0  0
   -3.9550    0.0962   30.2532 C   0  0  0  0  0  0  0  0  0  0  0  0
   -4.8139    0.9912   29.8069 C   0  0  0  0  0  0  0  0  0  0  0  0
   -3.5957   -0.0267   31.6752 C   0  0  0  0  0  0  0  0  0  0  0  0
   -2.6759   -0.8151   32.0787 N   0  0  0  0  0  0  0  0  0  0  0  0
   -2.7472   -1.5210   33.1229 C   0  0  0  0  0  0  0  0  0  0  0  0
   -3.6422   -1.1754   34.1149 C   0  0  0  0  0  0  0  0  0  0  0  0
   -3.5253   -1.7230   35.4200 C   0  0  0  0  0  0  0  0  0  0  0  0
   -4.4275   -1.2568   36.4750 C   0  0  0  0  0  0  0  0  0  0  0  0
   -4.4595   -1.5611   37.7656 C   0  0  0  0  0  0  0  0  0  0  0  0
   -3.4860   -2.5699   38.1149 C   0  0  0  0  0  0  0  0  0  0  0  0
   -3.4625   -2.9706   39.4696 C   0  0  0  0  0  0  0  0  0  0  0  0
   -2.4511   -2.7962   37.2516 C   0  0  0  0  0  0  0  0  0  0  0  0
   -2.5630   -2.4033   35.9368 C   0  0  0  0  0  0  0  0  0  0  0  0
   -2.5304   -2.8292   40.1126 O   0  0  0  0  0  0  0  0  0  0  0  0
   -4.6183   -3.6111   39.8792 N   0  0  0  0  0  0  0  0  0  0  0  0
   -4.6942   -4.1553   41.2197 C   0  0  0  0  0  0  0  0  0  0  0  0
   -5.6941   -4.7675   41.5155 C   0  0  0  0  0  0  0  0  0  0  0  0
   -6.7922   -4.8963   40.6310 C   0  0  0  0  0  0  0  0  0  0  0  0
   -6.7298   -4.3225   39.3455 C   0  0  0  0  0  0  0  0  0  0  0  0
   -5.6491   -3.7081   39.0160 C   0  0  0  0  0  0  0  0  0  0  0  0
   -4.7855   -0.4386   33.6161 C   0  0  0  0  0  0  0  0  0  0  0  0
   -4.9383   -0.2401   32.4172 C   0  0  0  0  0  0  0  0  0  0  0  0
  -10.4876    3.9430   25.2039 C   0  0  0  0  0  0  0  0  0  0  0  0
  -11.0894    3.9147   23.9130 C   0  0  0  0  0  0  0  0  0  0  0  0
  -10.6789    4.7683   22.9351 C   0  0  0  0  0  0  0  0  0  0  0  0
   -9.8992    5.8890   23.3197 C   0  0  0  0  0  0  0  0  0  0  0  0
   -9.3505    5.9760   24.5303 C   0  0  0  0  0  0  0  0  0  0  0  0
  5  6  1  0
  1 10  1  0
 10 11  2  0
 10 12  1  0
 14 16  1  0
 23 24  1  0
 24 27  2  0
 24 28  1  0
 28 29  1  0
 30 31  1  0
 28 33  1  0
 32 33  1  0
 20 19  1  0
 29 30  1  0
 31 32  1  0
  6  8  2  0
  8  9  1  0
  9 13  2  0
 13 14  1  0
 14 15  2  0
 15  6  1  0
 20 21  2  0
 21 22  1  0
 22 23  2  0
 23 25  1  0
 25 26  2  0
 26 20  1  0
 12 36  2  0
 36 37  1  0
 37 38  2  0
 38 39  1  0
 39 40  2  0
 40 12  1  0
  1  2  2  0
  2  4  1  0
  4  5  2  0
  5  7  1  0
  7  3  2  0
  3  1  1  0
 16 17  2  0
 17 18  1  0
 18 19  2  0
 19 34  1  0
 34 35  2  0
 35 16  1  0
M  END
$$$$
