No_8526-complexes_sdf/6BKW-FPZ/2024-09-17-14-21-01/
     RDKit          3D

 16 17  0  0  0  0  0  0  0  0999 V2000
   -7.9040    3.9820   27.1177 C   0  0  0  0  0  0  0  0  0  0  0  0
   -7.8663    4.8694   27.9238 C   0  0  0  0  0  0  0  0  0  0  0  0
   -9.0806    3.1428   27.1220 C   0  0  2  0  0  0  0  0  0  0  0  0
   -8.9544    1.8782   26.5468 C   0  0  0  0  0  0  0  0  0  0  0  0
   -8.5076    6.0545   27.5968 C   0  0  0  0  0  0  0  0  0  0  0  0
   -9.9663    1.1418   26.2860 C   0  0  0  0  0  0  0  0  0  0  0  0
   -9.9346    5.8082   27.2945 C   0  0  0  0  0  0  0  0  0  0  0  0
  -10.0855    4.3898   26.7413 C   0  0  1  0  0  0  0  0  0  0  0  0
   -9.7830   -0.1906   25.7121 C   0  0  0  0  0  0  0  0  0  0  0  0
   -8.8774   -0.5504   25.4743 C   0  0  0  0  0  0  0  0  0  0  0  0
   -7.5742    0.0794   25.7240 C   0  0  0  0  0  0  0  0  0  0  0  0
   -7.6268    1.3658   26.3019 C   0  0  0  0  0  0  0  0  0  0  0  0
  -10.0842    4.4626   25.2233 C   0  0  0  0  0  0  0  0  0  0  0  0
  -11.4974    3.8690   27.1216 C   0  0  0  0  0  0  0  0  0  0  0  0
  -12.5808    3.9752   26.4954 C   0  0  0  0  0  0  0  0  0  0  0  0
  -13.8323    3.6201   26.9558 C   0  0  0  0  0  0  0  0  0  0  0  0
  1  2  1  0
  1  3  1  0
  3  4  1  6
  2  5  1  0
  5  7  1  0
  3  8  1  0
  7  8  1  0
  8 13  1  6
  8 14  1  0
 14 15  2  3
 15 16  1  0
  4  6  2  0
  6  9  1  0
  9 10  2  0
 10 11  1  0
 11 12  2  0
 12  4  1  0
M  END
$$$$
