No_8839-complexes_sdf/6BKW-FPZ/2024-09-17-14-21-01/
     RDKit          3D

 16 17  0  0  0  0  0  0  0  0999 V2000
   -7.7129    4.2099   27.0854 C   0  0  0  0  0  0  0  0  0  0  0  0
   -8.9133    4.4736   27.0998 C   0  0  0  0  0  0  0  0  0  0  0  0
   -9.8363    3.8127   27.2418 C   0  0  0  0  0  0  0  0  0  0  0  0
   -7.2995    2.8520   27.3808 C   0  0  0  0  0  0  0  0  0  0  0  0
   -8.3226    1.9328   27.4680 C   0  0  0  0  0  0  0  0  0  0  0  0
   -9.5955    2.3639   27.4416 C   0  0  0  0  0  0  0  0  0  0  0  0
   -9.3566    5.9877   27.0196 C   0  0  0  0  0  0  0  0  0  0  0  0
   -8.5001    6.8373   26.1725 C   0  0  0  0  0  0  0  0  0  0  0  0
   -7.9395    0.2789   27.7268 Cl  0  0  0  0  0  0  0  0  0  0  0  0
  -10.7093    1.3773   27.7607 C   0  0  0  0  0  0  0  0  0  0  0  0
  -10.6622    0.1851   27.2930 C   0  0  0  0  0  0  0  0  0  0  0  0
  -10.5709   -0.2898   26.4058 C   0  0  0  0  0  0  0  0  0  0  0  0
  -10.5627   -1.7379   26.0912 C   0  0  0  0  0  0  0  0  0  0  0  0
  -10.6951   -2.5758   27.1276 C   0  0  0  0  0  0  0  0  0  0  0  0
  -10.8893   -2.0958   28.4108 C   0  0  0  0  0  0  0  0  0  0  0  0
  -10.8827   -0.7127   28.6834 C   0  0  0  0  0  0  0  0  0  0  0  0
  2  7  1  0
  7  8  1  0
  5  9  1  0
  6 10  1  0
 10 11  1  0
 11 12  2  0
 12 13  1  0
 13 14  2  0
 14 15  1  0
 15 16  2  0
 16 11  1  0
  1  2  2  0
  2  3  1  0
  3  6  2  0
  6  5  1  0
  5  4  2  0
  4  1  1  0
M  END
$$$$
