No_8084-complexes_sdf/6BKW-FPZ/2024-09-17-14-21-01/
     RDKit          3D

 19 19  0  0  0  0  0  0  0  0999 V2000
   -7.9040    3.9820   27.1177 C   0  0  0  0  0  0  0  0  0  0  0  0
   -7.8663    4.8694   27.9238 C   0  0  0  0  0  0  0  0  0  0  0  0
   -9.0806    3.1428   27.1220 C   0  0  1  0  0  0  0  0  0  0  0  0
   -8.9544    1.8782   26.5468 C   0  0  2  0  0  0  0  0  0  0  0  0
   -6.7151    5.8072   27.9111 C   0  0  0  0  0  0  0  0  0  0  0  0
   -9.6830    1.5813   25.4472 C   0  0  0  0  0  0  0  0  0  0  0  0
  -10.2235    3.5325   27.7696 C   0  0  0  0  0  0  0  0  0  0  0  0
   -9.4298    0.4498   24.7052 C   0  0  0  0  0  0  0  0  0  0  0  0
  -10.0999    0.3119   23.4523 C   0  0  0  0  0  0  0  0  0  0  0  0
  -10.9918    1.3009   22.9860 C   0  0  0  0  0  0  0  0  0  0  0  0
  -11.1405    2.4523   23.7005 C   0  0  0  0  0  0  0  0  0  0  0  0
  -10.4165    2.6503   24.8967 C   0  0  0  0  0  0  0  0  0  0  0  0
  -11.1806    4.1330   27.2705 C   0  0  0  0  0  0  0  0  0  0  0  0
   -8.1490    0.8185   27.2307 C   0  0  0  0  0  0  0  0  0  0  0  0
  -12.3525    4.5562   28.0006 C   0  0  0  0  0  0  0  0  0  0  0  0
  -12.7313    3.7847   29.0759 C   0  0  0  0  0  0  0  0  0  0  0  0
  -13.8781    4.0868   29.8165 C   0  0  0  0  0  0  0  0  0  0  0  0
  -14.7690    5.0457   29.3117 C   0  0  0  0  0  0  0  0  0  0  0  0
  -14.4721    5.7039   28.0986 C   0  0  0  0  0  0  0  0  0  0  0  0
  1  2  1  0
  3  1  1  1
  3  4  1  0
  2  5  1  0
  3  7  1  0
  7 13  2  3
  4 14  1  1
 13 15  1  0
 15 16  2  3
 16 17  1  0
 17 18  2  3
 18 19  1  0
  4  6  1  0
  6  8  2  0
  8  9  1  0
  9 10  2  0
 10 11  1  0
 11 12  2  0
 12  6  1  0
M  END
$$$$
