No_8459-complexes_sdf/6BKW-FPZ/2024-09-17-14-21-01/
     RDKit          3D

 19 21  0  0  0  0  0  0  0  0999 V2000
   -7.7129    4.2099   27.0854 C   0  0  2  0  0  0  0  0  0  0  0  0
   -8.9133    4.4736   27.0998 C   0  0  1  0  0  0  0  0  0  0  0  0
   -9.4643    5.5426   27.7628 C   0  0  0  0  0  0  0  0  0  0  0  0
   -9.8091    3.6358   26.2841 C   0  0  2  0  0  0  0  0  0  0  0  0
  -10.3717    2.5594   26.9241 C   0  0  0  0  0  0  0  0  0  0  0  0
  -10.9894    1.7053   26.4703 C   0  0  0  0  0  0  0  0  0  0  0  0
   -6.8295    4.9035   28.0852 C   0  0  0  0  0  0  0  0  0  0  0  0
  -11.5199    0.4963   27.2489 C   0  0  0  0  0  0  0  0  0  0  0  0
  -11.2453    0.5186   28.5908 C   0  0  0  0  0  0  0  0  0  0  0  0
  -10.5564    1.5901   29.1273 C   0  0  0  0  0  0  0  0  0  0  0  0
  -10.0700    2.5861   28.4092 C   0  0  0  0  0  0  0  0  0  0  0  0
   -9.9914    3.9301   24.9213 C   0  0  0  0  0  0  0  0  0  0  0  0
  -10.2461    2.8197   24.0882 C   0  0  0  0  0  0  0  0  0  0  0  0
  -10.4867    1.7619   24.4436 C   0  0  0  0  0  0  0  0  0  0  0  0
  -10.5650    1.4682   25.2424 C   0  0  0  0  0  0  0  0  0  0  0  0
   -8.0598    4.8466   26.5558 C   0  0  1  0  0  0  0  0  0  0  0  0
   -7.7148    6.2143   26.9557 C   0  0  0  0  0  0  0  0  0  0  0  0
   -8.0721    4.8335   25.1638 O   0  0  0  0  0  0  0  0  0  0  0  0
   -9.8021    4.3929   28.4425 O   0  0  0  0  0  0  0  0  0  0  0  0
  1  2  1  0
  2  3  1  6
  2  4  1  0
  4  5  1  0
  1  7  1  1
  4 12  1  6
 12 13  2  0
 13 14  1  0
  6 15  1  0
 14 15  1  0
  1 16  1  0
 16 17  1  6
 16 18  1  0
  3 19  1  0
 11 19  1  0
  5  6  2  0
  6  8  1  0
  8  9  2  0
  9 10  1  0
 10 11  2  0
 11  5  1  0
M  END
$$$$
