No_8229-complexes_sdf/6BKW-FPZ/2024-09-17-14-21-01/
     RDKit          3D

 21 22  0  0  0  0  0  0  0  0999 V2000
   -7.2496    3.8871   27.4508 C   0  0  0  0  0  0  0  0  0  0  0  0
   -7.9379    4.9063   27.8518 C   0  0  0  0  0  0  0  0  0  0  0  0
   -9.3376    4.8647   27.7795 C   0  0  0  0  0  0  0  0  0  0  0  0
   -7.8544    2.6294   27.0414 C   0  0  0  0  0  0  0  0  0  0  0  0
   -9.2665    2.6175   27.0340 C   0  0  0  0  0  0  0  0  0  0  0  0
   -9.9836    3.7042   27.4150 C   0  0  0  0  0  0  0  0  0  0  0  0
   -7.0765    1.4847   26.7707 C   0  0  0  0  0  0  0  0  0  0  0  0
   -7.6103    0.4216   26.0621 C   0  0  0  0  0  0  0  0  0  0  0  0
   -6.8759   -0.6671   25.8305 C   0  0  0  0  0  0  0  0  0  0  0  0
   -5.9174   -0.8369   26.3298 C   0  0  0  0  0  0  0  0  0  0  0  0
   -5.2050    0.0831   27.2558 C   0  0  0  0  0  0  0  0  0  0  0  0
   -5.8714    1.2506   27.5149 C   0  0  0  0  0  0  0  0  0  0  0  0
  -11.4371    3.4439   27.4329 C   0  0  0  0  0  0  0  0  0  0  0  0
  -12.3414    3.7755   26.8065 F   0  0  0  0  0  0  0  0  0  0  0  0
  -11.8050    4.0016   28.8006 F   0  0  0  0  0  0  0  0  0  0  0  0
  -11.7785    2.1439   27.8048 F   0  0  0  0  0  0  0  0  0  0  0  0
   -7.3161    6.0239   28.1995 F   0  0  0  0  0  0  0  0  0  0  0  0
   -3.9025   -0.1555   27.9449 C   0  0  0  0  0  0  0  0  0  0  0  0
   -3.8637   -1.1717   28.1299 F   0  0  0  0  0  0  0  0  0  0  0  0
   -2.9078    0.3564   27.1361 F   0  0  0  0  0  0  0  0  0  0  0  0
   -3.8595    0.6627   29.0762 F   0  0  0  0  0  0  0  0  0  0  0  0
  4  7  1  0
  6 13  1  0
 13 14  1  0
 13 15  1  0
 13 16  1  0
  2 17  1  0
 11 18  1  0
 18 19  1  0
 18 20  1  0
 18 21  1  0
  1  2  2  0
  2  3  1  0
  3  6  2  0
  6  5  1  0
  5  4  2  0
  4  1  1  0
  7  8  2  0
  8  9  1  0
  9 10  2  0
 10 11  1  0
 11 12  2  0
 12  7  1  0
M  END
$$$$
