No_8797-complexes_sdf/6BKW-FPZ/2024-09-17-14-21-01/
     RDKit          3D

 34 38  0  0  0  0  0  0  0  0999 V2000
   -7.9040    3.9820   27.1177 C   0  0  0  0  0  0  0  0  0  0  0  0
   -7.8663    4.8694   27.9238 C   0  0  0  0  0  0  0  0  0  0  0  0
   -9.0501    3.8017   26.2617 C   0  0  0  0  0  0  0  0  0  0  0  0
   -9.1826    2.7026   25.3575 C   0  0  1  0  0  0  0  0  0  0  0  0
   -8.6940    6.0131   27.8614 C   0  0  0  0  0  0  0  0  0  0  0  0
   -9.9755    4.8547   26.2361 C   0  0  0  0  0  0  0  0  0  0  0  0
   -9.7463    5.9398   27.0364 C   0  0  0  0  0  0  0  0  0  0  0  0
  -10.1292    1.8678   25.6851 C   0  0  0  0  0  0  0  0  0  0  0  0
  -10.1305    0.7169   25.0275 C   0  0  2  0  0  0  0  0  0  0  0  0
   -9.8832    0.6809   23.9258 C   0  0  1  0  0  0  0  0  0  0  0  0
   -8.9686    1.6713   23.2508 C   0  0  0  0  0  0  0  0  0  0  0  0
   -8.6693    2.7022   24.1148 N   0  0  0  0  0  0  0  0  0  0  0  0
   -7.0459    2.9279   27.2041 F   0  0  0  0  0  0  0  0  0  0  0  0
  -10.0494   -0.5427   22.8995 C   0  0  0  0  0  0  0  0  0  0  0  0
  -11.0634   -1.0673   23.0817 C   0  0  0  0  0  0  0  0  0  0  0  0
  -12.0381   -0.6083   23.9058 C   0  0  0  0  0  0  0  0  0  0  0  0
  -11.4327   -0.2334   25.2165 C   0  0  2  0  0  0  0  0  0  0  0  0
   -9.0095   -0.2499   25.7379 C   0  0  0  0  0  0  0  0  0  0  0  0
   -7.9493   -0.5101   25.3590 C   0  0  0  0  0  0  0  0  0  0  0  0
   -6.9298   -1.2032   26.1018 C   0  0  0  0  0  0  0  0  0  0  0  0
   -7.2259   -1.5955   27.3868 C   0  0  0  0  0  0  0  0  0  0  0  0
   -8.4588   -1.2816   27.9500 C   0  0  0  0  0  0  0  0  0  0  0  0
   -9.3882   -0.5492   27.2167 C   0  0  0  0  0  0  0  0  0  0  0  0
  -12.4384    0.4257   26.1547 C   0  0  0  0  0  0  0  0  0  0  0  0
  -12.9638    1.5488   25.9197 C   0  0  0  0  0  0  0  0  0  0  0  0
  -13.9048    1.8382   26.1372 C   0  0  0  0  0  0  0  0  0  0  0  0
  -12.8059   -0.3140   27.2845 C   0  0  0  0  0  0  0  0  0  0  0  0
  -13.9298    0.0857   28.0125 C   0  0  0  0  0  0  0  0  0  0  0  0
  -14.5271    1.2905   27.4975 C   0  0  0  0  0  0  0  0  0  0  0  0
  -11.1136   -1.6222   25.9230 C   0  0  0  0  0  0  0  0  0  0  0  0
  -10.6134   -0.6690   27.4827 O   0  0  0  0  0  0  0  0  0  0  0  0
  -10.7459   -1.6373   28.5644 C   0  0  0  0  0  0  0  0  0  0  0  0
  -12.3319   -2.3209   26.3520 C   0  0  0  0  0  0  0  0  0  0  0  0
  -10.1729   -2.5177   25.3372 C   0  0  0  0  0  0  0  0  0  0  0  0
  4  3  1  6
  4  8  1  0
  8  9  1  0
  9 10  1  0
 11 12  1  0
  1 13  1  0
 10 14  1  1
 15 16  1  0
  9 17  1  0
 16 17  1  0
  9 18  1  1
 17 24  1  0
 17 30  1  1
 23 31  1  0
 31 32  1  0
 30 33  1  0
 30 34  1  0
 14 15  1  0
  4 12  1  0
 11 10  1  0
 18 19  2  0
 19 20  1  0
 20 21  2  0
 21 22  1  0
 22 23  2  0
 23 18  1  0
 24 25  2  0
 25 26  1  0
 26 29  2  0
 29 28  1  0
 28 27  2  0
 27 24  1  0
  1  2  2  0
  2  5  1  0
  5  7  2  0
  7  6  1  0
  6  3  2  0
  3  1  1  0
M  END
$$$$
