No_8817-complexes_sdf/6BKW-FPZ/2024-09-17-14-21-01/
     RDKit          3D

 33 37  0  0  0  0  0  0  0  0999 V2000
   -7.7129    4.2099   27.0854 C   0  0  0  0  0  0  0  0  0  0  0  0
   -8.9133    4.4736   27.0998 C   0  0  0  0  0  0  0  0  0  0  0  0
   -9.7135    3.9633   26.0300 C   0  0  0  0  0  0  0  0  0  0  0  0
   -6.8420    4.9760   28.0851 C   0  0  0  0  0  0  0  0  0  0  0  0
   -9.6552    4.2399   24.9004 C   0  0  0  0  0  0  0  0  0  0  0  0
  -10.4285    3.7872   23.7716 C   0  0  0  0  0  0  0  0  0  0  0  0
  -11.2878    2.7733   24.0202 C   0  0  0  0  0  0  0  0  0  0  0  0
  -10.6770    2.9125   26.2852 C   0  0  0  0  0  0  0  0  0  0  0  0
  -11.4583    2.3723   25.3212 C   0  0  0  0  0  0  0  0  0  0  0  0
   -9.5279    5.3486   28.0351 C   0  0  0  0  0  0  0  0  0  0  0  0
   -7.4481    5.9273   28.8780 C   0  0  0  0  0  0  0  0  0  0  0  0
   -8.7639    6.1473   28.8502 C   0  0  0  0  0  0  0  0  0  0  0  0
  -12.1336    2.2885   22.9015 C   0  0  0  0  0  0  0  0  0  0  0  0
  -12.0484    2.6347   21.7765 C   0  0  0  0  0  0  0  0  0  0  0  0
  -12.7468    2.0617   20.7272 C   0  0  0  0  0  0  0  0  0  0  0  0
  -13.6532    1.0672   20.9754 C   0  0  0  0  0  0  0  0  0  0  0  0
  -13.7758    0.6712   22.2570 C   0  0  0  0  0  0  0  0  0  0  0  0
  -13.0325    1.2132   23.2765 C   0  0  0  0  0  0  0  0  0  0  0  0
  -10.8702    2.3994   27.7172 C   0  0  0  0  0  0  0  0  0  0  0  0
  -10.3548    2.6140   28.7265 C   0  0  0  0  0  0  0  0  0  0  0  0
  -11.7080    1.1230   27.6753 C   0  0  0  0  0  0  0  0  0  0  0  0
  -12.8960    1.2079   28.5825 C   0  0  0  0  0  0  0  0  0  0  0  0
  -13.2975   -0.0710   28.8972 C   0  0  0  0  0  0  0  0  0  0  0  0
  -12.9282   -1.1926   28.1663 C   0  0  0  0  0  0  0  0  0  0  0  0
  -11.9462   -1.1351   27.2445 C   0  0  0  0  0  0  0  0  0  0  0  0
  -11.2475    0.0239   27.1140 C   0  0  0  0  0  0  0  0  0  0  0  0
  -14.7722   -0.4163   22.5713 C   0  0  0  0  0  0  0  0  0  0  0  0
  -15.0400   -0.7516   23.8566 C   0  0  0  0  0  0  0  0  0  0  0  0
  -15.9211   -1.7520   24.1896 C   0  0  0  0  0  0  0  0  0  0  0  0
  -16.5207   -2.4255   23.1567 C   0  0  0  0  0  0  0  0  0  0  0  0
  -16.2728   -2.1144   21.8734 C   0  0  0  0  0  0  0  0  0  0  0  0
  -15.3776   -1.1063   21.6052 C   0  0  0  0  0  0  0  0  0  0  0  0
  -17.6236   -3.6983   23.6523 Cl  0  0  0  0  0  0  0  0  0  0  0  0
  2  3  1  0
  7 13  1  0
  8 19  1  0
 19 20  2  0
 19 21  1  0
 17 27  1  0
 30 33  1  0
  3  5  2  0
  5  6  1  0
  6  7  2  0
  7  9  1  0
  9  8  2  0
  8  3  1  0
  1  2  2  0
  2 10  1  0
 10 12  2  0
 12 11  1  0
 11  4  2  0
  4  1  1  0
 27 28  2  0
 28 29  1  0
 29 30  2  0
 30 31  1  0
 31 32  2  0
 32 27  1  0
 13 14  2  0
 14 15  1  0
 15 16  2  0
 16 17  1  0
 17 18  2  0
 18 13  1  0
 21 22  2  0
 22 23  1  0
 23 24  2  0
 24 25  1  0
 25 26  2  0
 26 21  1  0
M  END
$$$$
