No_8405-complexes_sdf/6BKW-FPZ/2024-09-17-14-21-01/
     RDKit          3D

 34 36  0  0  0  0  0  0  0  0999 V2000
   -7.9040    3.9820   27.1177 C   0  0  0  0  0  0  0  0  0  0  0  0
   -7.8663    4.8694   27.9238 C   0  0  0  0  0  0  0  0  0  0  0  0
   -9.0953    3.1697   27.0532 C   0  0  0  0  0  0  0  0  0  0  0  0
   -9.1405    2.0104   26.1761 C   0  0  0  0  0  0  0  0  0  0  0  0
   -9.0299    5.5381   28.3948 C   0  0  0  0  0  0  0  0  0  0  0  0
  -10.2709    4.9222   28.1362 C   0  0  0  0  0  0  0  0  0  0  0  0
  -10.2487    3.7550   27.4045 C   0  0  0  0  0  0  0  0  0  0  0  0
   -9.8414    1.7696   25.2539 C   0  0  0  0  0  0  0  0  0  0  0  0
   -9.8430    0.9922   24.4672 C   0  0  0  0  0  0  0  0  0  0  0  0
   -8.8265   -0.0850   24.4876 C   0  0  0  0  0  0  0  0  0  0  0  0
   -7.9262    1.1797   26.2947 C   0  0  0  0  0  0  0  0  0  0  0  0
   -7.0708    1.2337   27.5147 C   0  0  0  0  0  0  0  0  0  0  0  0
   -7.8790    0.0082   25.5155 C   0  0  0  0  0  0  0  0  0  0  0  0
   -5.7569    1.5943   27.3331 C   0  0  0  0  0  0  0  0  0  0  0  0
   -4.8337    1.0708   28.4068 C   0  0  0  0  0  0  0  0  0  0  0  0
   -4.1951   -0.2366   28.1553 C   0  0  0  0  0  0  0  0  0  0  0  0
   -4.9458   -1.1868   28.5010 C   0  0  0  0  0  0  0  0  0  0  0  0
   -4.4514   -2.0873   29.2689 C   0  0  1  0  0  0  0  0  0  0  0  0
   -3.1859   -2.6450   29.2651 Cl  0  0  0  0  0  0  0  0  0  0  0  0
   -4.6942   -1.6719   30.7367 N   0  0  0  0  0  0  0  0  0  0  0  0
   -4.6798   -2.3998   31.7013 C   0  0  0  0  0  0  0  0  0  0  0  0
   -5.2415   -2.2879   32.7123 C   0  0  0  0  0  0  0  0  0  0  0  0
   -5.9873   -1.0384   33.0505 C   0  0  0  0  0  0  0  0  0  0  0  0
   -6.6554   -0.8597   34.2788 C   0  0  0  0  0  0  0  0  0  0  0  0
   -6.3755   -1.8921   35.1677 C   0  0  0  0  0  0  0  0  0  0  0  0
   -5.7051   -3.0095   35.0548 C   0  0  0  0  0  0  0  0  0  0  0  0
   -5.0929   -3.1727   33.8116 C   0  0  0  0  0  0  0  0  0  0  0  0
  -11.5917    3.1103   27.2581 C   0  0  0  0  0  0  0  0  0  0  0  0
  -11.9551    2.1871   28.1066 C   0  0  0  0  0  0  0  0  0  0  0  0
  -12.9167    1.2342   27.9668 C   0  0  0  0  0  0  0  0  0  0  0  0
  -12.9279    0.0830   28.7663 C   0  0  0  0  0  0  0  0  0  0  0  0
   -6.5582    5.7066   28.1743 C   0  0  0  0  0  0  0  0  0  0  0  0
  -13.9779   -0.2816   29.2787 C   0  0  0  0  0  0  0  0  0  0  0  0
  -15.2440    0.0410   28.6801 C   0  0  0  0  0  0  0  0  0  0  0  0
  3  4  1  0
 11 12  1  0
 12 14  1  0
 14 15  1  0
 15 16  1  0
 16 17  1  0
 17 18  1  0
 18 19  1  1
 18 20  1  0
 20 21  1  0
  7 28  1  0
 28 29  1  0
 29 30  2  3
 30 31  1  0
  2 32  1  0
 31 33  2  3
 33 34  1  0
 21 22  1  0
  4  8  2  0
  8  9  1  0
  9 10  2  0
 10 13  1  0
 13 11  2  0
 11  4  1  0
 22 23  2  0
 23 24  1  0
 24 25  2  0
 25 26  1  0
 26 27  2  0
 27 22  1  0
  1  2  2  0
  2  5  1  0
  5  6  2  0
  6  7  1  0
  7  3  2  0
  3  1  1  0
M  END
$$$$
