No_8867-complexes_sdf/6BKW-FPZ/2024-09-17-14-21-01/
     RDKit          3D

 12 13  0  0  0  0  0  0  0  0999 V2000
   -7.7129    4.2099   27.0854 C   0  0  0  0  0  0  0  0  0  0  0  0
   -7.7814    5.1722   27.8972 C   0  0  0  0  0  0  0  0  0  0  0  0
   -8.8776    3.8408   26.3416 C   0  0  0  0  0  0  0  0  0  0  0  0
   -9.9844    4.6492   26.4743 C   0  0  0  0  0  0  0  0  0  0  0  0
   -8.7830    6.1594   27.8870 C   0  0  0  0  0  0  0  0  0  0  0  0
   -9.9269    5.8191   27.1183 C   0  0  0  0  0  0  0  0  0  0  0  0
   -9.0902    2.6263   25.6014 C   0  0  0  0  0  0  0  0  0  0  0  0
   -8.4440    1.4620   26.1144 C   0  0  0  0  0  0  0  0  0  0  0  0
   -8.5260    0.2514   25.4554 C   0  0  0  0  0  0  0  0  0  0  0  0
   -9.1732    0.2586   24.2136 C   0  0  0  0  0  0  0  0  0  0  0  0
   -9.6192    2.5183   24.3790 C   0  0  0  0  0  0  0  0  0  0  0  0
   -9.6890    1.3811   23.6716 C   0  0  0  0  0  0  0  0  0  0  0  0
  3  7  1  0
  7  8  2  0
  8  9  1  0
  9 10  2  0
 10 12  1  0
 12 11  2  0
 11  7  1  0
  1  2  2  0
  2  5  1  0
  5  6  2  0
  6  4  1  0
  4  3  2  0
  3  1  1  0
M  END
$$$$
