No_8373-complexes_sdf/6BKW-FPZ/2024-09-17-14-21-01/
     RDKit          3D

 16 17  0  0  0  0  0  0  0  0999 V2000
   -7.2496    3.8871   27.4508 C   0  0  0  0  0  0  0  0  0  0  0  0
   -7.9379    4.9063   27.8518 C   0  0  0  0  0  0  0  0  0  0  0  0
   -8.7729    5.5444   27.0168 C   0  0  0  0  0  0  0  0  0  0  0  0
   -6.2858    3.2138   28.3467 C   0  0  0  0  0  0  0  0  0  0  0  0
   -9.2459    4.9714   25.8185 C   0  0  0  0  0  0  0  0  0  0  0  0
   -8.7245    3.6550   25.5132 C   0  0  0  0  0  0  0  0  0  0  0  0
   -7.8326    3.1219   26.4052 C   0  0  0  0  0  0  0  0  0  0  0  0
   -5.6873    1.9697   27.9543 C   0  0  0  0  0  0  0  0  0  0  0  0
   -5.9947    1.0746   27.5956 C   0  0  0  0  0  0  0  0  0  0  0  0
   -5.2039   -0.1360   27.5780 C   0  0  0  0  0  0  0  0  0  0  0  0
   -5.7423   -1.4356   27.2814 C   0  0  0  0  0  0  0  0  0  0  0  0
   -3.8539    0.0219   28.1210 C   0  0  0  0  0  0  0  0  0  0  0  0
   -2.9942   -1.1152   28.2155 C   0  0  0  0  0  0  0  0  0  0  0  0
   -3.4562   -2.2664   27.7815 C   0  0  0  0  0  0  0  0  0  0  0  0
   -4.7276   -2.4807   27.3230 C   0  0  0  0  0  0  0  0  0  0  0  0
   -7.3152    0.6886   27.3683 O   0  0  0  0  0  0  0  0  0  0  0  0
  1  4  1  0
  4  8  2  3
  8  9  1  0
  9 10  1  0
  9 16  2  0
 10 11  2  0
 11 15  1  0
 15 14  2  0
 14 13  1  0
 13 12  2  0
 12 10  1  0
  1  2  2  0
  2  3  1  0
  3  5  2  0
  5  6  1  0
  6  7  2  0
  7  1  1  0
M  END
$$$$
