No_8875-complexes_sdf/6BKW-FPZ/2024-09-17-14-21-01/
     RDKit          3D

 20 21  0  0  0  0  0  0  0  0999 V2000
   -7.9040    3.9820   27.1177 C   0  0  0  0  0  0  0  0  0  0  0  0
   -8.2057    2.8231   26.8733 C   0  0  0  0  0  0  0  0  0  0  0  0
   -7.4766    1.7477   27.4593 C   0  0  0  0  0  0  0  0  0  0  0  0
   -8.7468    5.1251   26.6967 C   0  0  0  0  0  0  0  0  0  0  0  0
   -9.7234    4.8589   25.8202 C   0  0  0  0  0  0  0  0  0  0  0  0
   -9.9711    3.5858   25.4266 C   0  0  0  0  0  0  0  0  0  0  0  0
   -9.2266    2.4957   25.9600 C   0  0  0  0  0  0  0  0  0  0  0  0
   -6.3403    1.9970   28.0074 O   0  0  0  0  0  0  0  0  0  0  0  0
   -7.7232    0.4166   27.1633 N   0  0  0  0  0  0  0  0  0  0  0  0
   -6.9745   -0.6838   27.7053 C   0  0  0  0  0  0  0  0  0  0  0  0
   -8.4213    6.5161   27.1124 C   0  0  0  0  0  0  0  0  0  0  0  0
   -7.9405    7.6089   27.0337 N   0  0  0  0  0  0  0  0  0  0  0  0
   -5.8040   -0.6050   27.9880 C   0  0  0  0  0  0  0  0  0  0  0  0
   -5.3730   -1.6065   28.9533 C   0  0  0  0  0  0  0  0  0  0  0  0
   -6.1634   -2.6336   29.3212 C   0  0  0  0  0  0  0  0  0  0  0  0
   -7.7905   -1.6439   28.3649 C   0  0  0  0  0  0  0  0  0  0  0  0
   -7.4387   -2.5743   29.1404 C   0  0  0  0  0  0  0  0  0  0  0  0
  -10.8968    3.3613   24.5170 F   0  0  0  0  0  0  0  0  0  0  0  0
   -9.2479   -1.6583   28.2751 F   0  0  0  0  0  0  0  0  0  0  0  0
   -3.5596   -1.6671   29.2291 Cl  0  0  0  0  0  0  0  0  0  0  0  0
  2  3  1  0
  3  8  2  0
  3  9  1  0
  9 10  1  0
  4 11  1  0
 11 12  3  0
  6 18  1  0
 16 19  1  0
 14 20  1  0
 10 13  2  0
 13 14  1  0
 14 15  2  0
 15 17  1  0
 17 16  2  0
 16 10  1  0
  1  2  2  0
  2  7  1  0
  7  6  2  0
  6  5  1  0
  5  4  2  0
  4  1  1  0
M  END
$$$$
