No_8467-complexes_sdf/6BKW-FPZ/2024-09-17-14-21-01/
     RDKit          3D

 15 16  0  0  0  0  0  0  0  0999 V2000
   -7.9040    3.9820   27.1177 C   0  0  0  0  0  0  0  0  0  0  0  0
   -8.2057    2.8231   26.8733 C   0  0  0  0  0  0  0  0  0  0  0  0
   -9.2962    2.4021   26.1155 C   0  0  0  0  0  0  0  0  0  0  0  0
   -8.7358    5.0662   26.5917 C   0  0  0  0  0  0  0  0  0  0  0  0
   -9.6889    4.7388   25.9597 C   0  0  0  0  0  0  0  0  0  0  0  0
  -10.0515    3.4724   25.6054 C   0  0  0  0  0  0  0  0  0  0  0  0
   -8.3387    6.4748   26.9515 C   0  0  0  0  0  0  0  0  0  0  0  0
   -8.5891    7.4419   26.2997 O   0  0  0  0  0  0  0  0  0  0  0  0
   -7.3836    6.5110   27.9443 O   0  0  0  0  0  0  0  0  0  0  0  0
   -7.3239    1.6280   27.4094 C   0  0  0  0  0  0  0  0  0  0  0  0
   -5.9843    1.9014   27.7947 C   0  0  0  0  0  0  0  0  0  0  0  0
   -5.1776    0.8405   28.2850 C   0  0  0  0  0  0  0  0  0  0  0  0
   -5.6647   -0.4536   28.3134 C   0  0  0  0  0  0  0  0  0  0  0  0
   -7.5334    0.2550   27.4239 C   0  0  0  0  0  0  0  0  0  0  0  0
   -6.8710   -0.6977   27.9216 C   0  0  0  0  0  0  0  0  0  0  0  0
  4  7  1  0
  7  8  2  0
  7  9  1  0
  2 10  1  0
  1  2  2  0
  2  3  1  0
  3  6  2  0
  6  5  1  0
  5  4  2  0
  4  1  1  0
 10 11  2  0
 11 12  1  0
 12 13  2  0
 13 15  1  0
 15 14  2  0
 14 10  1  0
M  END
$$$$
