No_8710-complexes_sdf/6BKW-FPZ/2024-09-17-14-21-01/
     RDKit          3D

 20 21  0  0  0  0  0  0  0  0999 V2000
   -7.9040    3.9820   27.1177 C   0  0  0  0  0  0  0  0  0  0  0  0
   -8.2057    2.8231   26.8733 C   0  0  0  0  0  0  0  0  0  0  0  0
   -9.2962    2.4021   26.1155 C   0  0  0  0  0  0  0  0  0  0  0  0
   -6.8682    4.5169   28.0704 C   0  0  0  0  0  0  0  0  0  0  0  0
  -10.0578    3.3688   25.5520 C   0  0  0  0  0  0  0  0  0  0  0  0
   -9.6997    4.7480   25.6981 C   0  0  0  0  0  0  0  0  0  0  0  0
   -8.6783    5.1111   26.5262 C   0  0  0  0  0  0  0  0  0  0  0  0
  -11.1473    3.2498   24.5223 C   0  0  0  0  0  0  0  0  0  0  0  0
  -12.3649    3.0517   25.0775 C   0  0  0  0  0  0  0  0  0  0  0  0
  -12.5894    3.0788   26.4984 C   0  0  0  0  0  0  0  0  0  0  0  0
  -11.6772    3.1759   27.3710 C   0  0  0  0  0  0  0  0  0  0  0  0
  -12.0314    3.2463   28.8341 C   0  0  0  0  0  0  0  0  0  0  0  0
   -7.0151    5.6303   28.6893 N   0  0  0  0  0  0  0  0  0  0  0  0
   -5.7158    3.9666   27.8503 O   0  0  0  0  0  0  0  0  0  0  0  0
  -13.3654    3.2536   29.2402 C   0  0  0  0  0  0  0  0  0  0  0  0
  -14.3289    3.1949   28.2372 C   0  0  0  0  0  0  0  0  0  0  0  0
  -14.0194    3.1849   26.9258 C   0  0  0  0  0  0  0  0  0  0  0  0
  -10.8339    3.1283   23.1906 C   0  0  0  0  0  0  0  0  0  0  0  0
  -10.3388    2.4599   22.6344 C   0  0  0  0  0  0  0  0  0  0  0  0
   -9.9831    2.4801   21.1564 C   0  0  0  0  0  0  0  0  0  0  0  0
  1  4  1  0
  5  8  1  0
  8  9  2  3
  9 10  1  0
  4 13  1  0
  4 14  2  0
  8 18  1  0
 18 19  2  3
 19 20  1  0
 10 11  2  0
 11 12  1  0
 12 15  2  0
 15 16  1  0
 16 17  2  0
 17 10  1  0
  1  2  2  0
  2  3  1  0
  3  5  2  0
  5  6  1  0
  6  7  2  0
  7  1  1  0
M  END
$$$$
