No_8718-complexes_sdf/6BKW-FPZ/2024-09-17-14-21-01/
     RDKit          3D

 18 19  0  0  0  0  0  0  0  0999 V2000
   -7.7129    4.2099   27.0854 C   0  0  0  0  0  0  0  0  0  0  0  0
   -8.2112    3.0637   26.9225 C   0  0  0  0  0  0  0  0  0  0  0  0
   -8.5108    5.3904   26.9436 C   0  0  0  0  0  0  0  0  0  0  0  0
   -9.7256    5.1955   26.3518 C   0  0  0  0  0  0  0  0  0  0  0  0
   -7.4704    1.8386   27.3272 C   0  0  0  0  0  0  0  0  0  0  0  0
   -9.5296    2.9550   26.4652 C   0  0  0  0  0  0  0  0  0  0  0  0
  -10.2465    4.0091   26.1867 C   0  0  0  0  0  0  0  0  0  0  0  0
   -7.9021    0.5706   27.1710 C   0  0  0  0  0  0  0  0  0  0  0  0
   -7.1121   -0.4757   27.4772 C   0  0  0  0  0  0  0  0  0  0  0  0
   -5.7969   -0.2679   27.9194 C   0  0  0  0  0  0  0  0  0  0  0  0
   -5.2995    1.0338   28.0295 C   0  0  0  0  0  0  0  0  0  0  0  0
   -6.0444    2.0826   27.7019 C   0  0  0  0  0  0  0  0  0  0  0  0
   -7.9620    6.6606   27.1305 N   0  0  0  0  0  0  0  0  0  0  0  0
   -3.6724    1.1692   28.6155 Cl  0  0  0  0  0  0  0  0  0  0  0  0
   -8.6635    7.7417   26.7881 N   0  0  0  0  0  0  0  0  0  0  0  0
   -7.6605   -1.8153   27.4288 C   0  0  0  0  0  0  0  0  0  0  0  0
   -8.3585   -2.4198   28.0090 C   0  0  0  0  0  0  0  0  0  0  0  0
   -8.8909   -3.7453   27.8641 C   0  0  0  0  0  0  0  0  0  0  0  0
  2  5  1  0
  3 13  1  0
 11 14  1  0
 13 15  1  0
  9 16  1  0
 16 17  2  3
 17 18  1  0
  5  8  2  0
  8  9  1  0
  9 10  2  0
 10 11  1  0
 11 12  2  0
 12  5  1  0
  1  2  2  0
  2  6  1  0
  6  7  2  0
  7  4  1  0
  4  3  2  0
  3  1  1  0
M  END
$$$$
