No_8272-complexes_sdf/6BKW-FPZ/2024-09-17-14-21-01/
     RDKit          3D

 40 43  0  0  0  0  0  0  0  0999 V2000
   -7.7129    4.2099   27.0854 C   0  0  0  0  0  0  0  0  0  0  0  0
   -8.2112    3.0637   26.9225 C   0  0  0  0  0  0  0  0  0  0  0  0
   -9.4446    2.8304   26.1868 C   0  0  0  0  0  0  0  0  0  0  0  0
   -8.4697    5.3956   26.7238 C   0  0  0  0  0  0  0  0  0  0  0  0
   -9.6172    5.2111   25.9513 C   0  0  0  0  0  0  0  0  0  0  0  0
  -10.0424    3.9782   25.6873 C   0  0  0  0  0  0  0  0  0  0  0  0
   -7.9172    6.7181   27.0124 C   0  0  0  0  0  0  0  0  0  0  0  0
   -8.6866    7.7970   27.0519 C   0  0  0  0  0  0  0  0  0  0  0  0
   -7.4860    1.8014   27.3699 C   0  0  0  0  0  0  0  0  0  0  0  0
   -6.2816    1.9595   27.7887 O   0  0  0  0  0  0  0  0  0  0  0  0
   -8.0287    0.6106   27.3226 N   0  0  0  0  0  0  0  0  0  0  0  0
   -7.3585   -0.6060   27.7549 C   0  0  0  0  0  0  0  0  0  0  0  0
   -7.0230   -1.4937   26.8520 C   0  0  0  0  0  0  0  0  0  0  0  0
   -7.6141   -1.5498   25.6811 C   0  0  0  0  0  0  0  0  0  0  0  0
   -6.9662   -1.0402   24.6263 C   0  0  0  0  0  0  0  0  0  0  0  0
   -5.4457   -1.0753   24.6343 C   0  0  0  0  0  0  0  0  0  0  0  0
   -4.8054   -1.2523   25.8579 C   0  0  0  0  0  0  0  0  0  0  0  0
   -5.5927   -1.3248   27.0226 C   0  0  0  0  0  0  0  0  0  0  0  0
   -7.5238   -0.9296   23.2371 C   0  0  1  0  0  0  0  0  0  0  0  0
   -7.5424   -1.6960   22.5317 C   0  0  0  0  0  0  0  0  0  0  0  0
   -8.1551   -1.5582   21.1373 C   0  0  0  0  0  0  0  0  0  0  0  0
   -8.0387   -2.5365   20.1391 C   0  0  0  0  0  0  0  0  0  0  0  0
   -7.2109   -3.6625   20.4227 C   0  0  0  0  0  0  0  0  0  0  0  0
   -6.5818   -3.8047   21.5721 C   0  0  0  0  0  0  0  0  0  0  0  0
   -6.6566   -2.9271   22.5455 C   0  0  0  0  0  0  0  0  0  0  0  0
   -8.3141    0.3677   23.2442 C   0  0  0  0  0  0  0  0  0  0  0  0
   -9.5286    0.5833   23.5014 N   0  0  0  0  0  0  0  0  0  0  0  0
  -10.1736    0.0373   24.5458 C   0  0  0  0  0  0  0  0  0  0  0  0
  -11.5535    0.2461   24.7605 C   0  0  0  0  0  0  0  0  0  0  0  0
  -10.3796    1.3031   22.6187 C   0  0  0  0  0  0  0  0  0  0  0  0
  -11.6915    1.5100   22.7665 C   0  0  0  0  0  0  0  0  0  0  0  0
  -12.1761   -0.3482   25.9647 C   0  0  0  0  0  0  0  0  0  0  0  0
  -12.2484    1.0243   23.8651 C   0  0  0  0  0  0  0  0  0  0  0  0
  -13.0178   -0.0370   26.4453 O   0  0  0  0  0  0  0  0  0  0  0  0
  -11.4297   -1.3972   26.4534 O   0  0  0  0  0  0  0  0  0  0  0  0
   -4.9246   -1.3493   28.2961 C   0  0  0  0  0  0  0  0  0  0  0  0
   -4.0841   -2.3299   28.6920 C   0  0  0  0  0  0  0  0  0  0  0  0
   -3.4322   -2.2483   29.9635 C   0  0  0  0  0  0  0  0  0  0  0  0
   -3.6409   -1.1174   30.8671 C   0  0  0  0  0  0  0  0  0  0  0  0
   -4.3813   -0.1681   30.4193 C   0  0  0  0  0  0  0  0  0  0  0  0
  4  7  1  0
  7  8  1  0
  2  9  1  0
  9 10  2  0
  9 11  1  0
 11 12  1  0
 12 13  1  0
 15 19  1  0
 19 26  1  1
 26 27  1  0
 27 28  1  0
 27 30  1  0
 29 32  1  0
 29 33  1  0
 31 33  1  0
 32 34  2  0
 32 35  1  0
 18 36  1  0
 36 37  2  3
 37 38  1  0
 38 39  2  3
 39 40  1  0
 19 20  1  0
 28 29  1  0
 31 30  1  0
 13 14  2  0
 14 15  1  0
 15 16  2  0
 16 17  1  0
 17 18  2  0
 18 13  1  0
  1  2  2  0
  2  3  1  0
  3  6  2  0
  6  5  1  0
  5  4  2  0
  4  1  1  0
 20 21  2  0
 21 22  1  0
 22 23  2  0
 23 24  1  0
 24 25  2  0
 25 20  1  0
M  END
$$$$
