No_8382-complexes_sdf/6BKW-FPZ/2024-09-17-14-21-01/
     RDKit          3D

 22 24  0  0  0  0  0  0  0  0999 V2000
   -7.7129    4.2099   27.0854 C   0  0  0  0  0  0  0  0  0  0  0  0
   -8.9133    4.4736   27.0998 C   0  0  0  0  0  0  0  0  0  0  0  0
   -9.7135    3.9633   26.0300 C   0  0  0  0  0  0  0  0  0  0  0  0
   -6.8420    4.9760   28.0851 C   0  0  0  0  0  0  0  0  0  0  0  0
  -10.9164    3.4776   26.1172 C   0  0  0  0  0  0  0  0  0  0  0  0
  -11.6897    3.8137   27.2913 C   0  0  0  0  0  0  0  0  0  0  0  0
  -10.9877    4.2901   28.4231 C   0  0  0  0  0  0  0  0  0  0  0  0
   -9.6492    4.5388   28.3533 C   0  0  0  0  0  0  0  0  0  0  0  0
  -13.1233    3.4856   27.4111 C   0  0  0  0  0  0  0  0  0  0  0  0
  -13.7486    3.2723   26.6066 C   0  0  0  0  0  0  0  0  0  0  0  0
  -15.2281    2.9901   26.6992 C   0  0  0  0  0  0  0  0  0  0  0  0
  -13.6269    3.3851   28.7979 C   0  0  0  0  0  0  0  0  0  0  0  0
  -14.9568    3.1108   29.0441 C   0  0  0  0  0  0  0  0  0  0  0  0
  -15.7486    2.9092   27.9598 C   0  0  0  0  0  0  0  0  0  0  0  0
   -7.4005    6.0440   28.5667 N   0  0  0  0  0  0  0  0  0  0  0  0
   -5.7430    4.3965   28.4946 N   0  0  0  0  0  0  0  0  0  0  0  0
  -17.5812    2.4897   28.1344 Br  0  0  0  0  0  0  0  0  0  0  0  0
   -9.1143    3.7327   24.8465 O   0  0  0  0  0  0  0  0  0  0  0  0
  -10.0309    3.1827   23.8483 C   0  0  0  0  0  0  0  0  0  0  0  0
  -11.2265    3.1226   24.6441 C   0  0  0  0  0  0  0  0  0  0  0  0
   -9.8363    2.8000   22.6471 C   0  0  0  0  0  0  0  0  0  0  0  0
  -10.3464    3.5275   21.6953 N   0  0  0  0  0  0  0  0  0  0  0  0
  1  2  1  0
  1  4  1  0
  6  9  1  0
  4 15  1  0
  4 16  2  0
 14 17  1  0
  3 18  1  0
 18 19  1  0
  5 20  1  0
 19 20  2  0
 19 21  1  0
 21 22  3  0
  9 10  2  0
 10 11  1  0
 11 14  2  0
 14 13  1  0
 13 12  2  0
 12  9  1  0
  2  3  2  0
  3  5  1  0
  5  6  2  0
  6  7  1  0
  7  8  2  0
  8  2  1  0
M  END
$$$$
