No_8443-complexes_sdf/6BKW-FPZ/2024-09-17-14-21-01/
     RDKit          3D

 20 22  0  0  0  0  0  0  0  0999 V2000
   -7.9040    3.9820   27.1177 C   0  0  0  0  0  0  0  0  0  0  0  0
   -8.2057    2.8231   26.8733 C   0  0  0  0  0  0  0  0  0  0  0  0
   -7.4766    1.7477   27.4593 C   0  0  0  0  0  0  0  0  0  0  0  0
   -8.7468    5.1251   26.6967 C   0  0  0  0  0  0  0  0  0  0  0  0
   -9.6471    4.9075   26.0510 C   0  0  0  0  0  0  0  0  0  0  0  0
  -10.0309    3.6580   25.5399 C   0  0  0  0  0  0  0  0  0  0  0  0
   -9.2845    2.5302   26.0222 C   0  0  0  0  0  0  0  0  0  0  0  0
   -6.2116    1.9237   27.8854 N   0  0  0  0  0  0  0  0  0  0  0  0
   -5.2853    0.8447   28.0634 C   0  0  0  0  0  0  0  0  0  0  0  0
   -5.7982   -0.3906   27.9832 C   0  0  0  0  0  0  0  0  0  0  0  0
   -7.8030    0.3696   27.2394 C   0  0  0  0  0  0  0  0  0  0  0  0
   -7.0481   -0.6281   27.5865 C   0  0  0  0  0  0  0  0  0  0  0  0
   -8.5449    6.5510   27.1313 C   0  0  0  0  0  0  0  0  0  0  0  0
   -4.0746    1.2166   28.5540 N   0  0  0  0  0  0  0  0  0  0  0  0
   -8.9139    6.8169   28.2464 F   0  0  0  0  0  0  0  0  0  0  0  0
   -7.1056    6.8274   27.2793 F   0  0  0  0  0  0  0  0  0  0  0  0
   -8.8835    7.4667   26.1946 F   0  0  0  0  0  0  0  0  0  0  0  0
   -3.2030    0.2026   28.8926 C   0  0  0  0  0  0  0  0  0  0  0  0
   -3.6013   -1.1044   28.8681 C   0  0  0  0  0  0  0  0  0  0  0  0
   -4.8556   -1.4190   28.4469 C   0  0  0  0  0  0  0  0  0  0  0  0
  2  3  1  0
  4 13  1  0
 13 15  1  0
 13 16  1  0
 13 17  1  0
  3  8  2  0
  8  9  1  0
 10 12  1  0
 12 11  2  0
 11  3  1  0
  1  2  2  0
  2  7  1  0
  7  6  2  0
  6  5  1  0
  5  4  2  0
  4  1  1  0
  9 10  2  0
 10 20  1  0
 20 19  2  0
 19 18  1  0
 18 14  2  0
 14  9  1  0
M  END
$$$$
