No_8016-complexes_sdf/6BKW-FPZ/2024-09-17-14-21-01/
     RDKit          3D

 26 28  0  0  0  0  0  0  0  0999 V2000
   -7.7129    4.2099   27.0854 C   0  0  0  0  0  0  0  0  0  0  0  0
   -7.7814    5.1722   27.8972 C   0  0  0  0  0  0  0  0  0  0  0  0
   -8.8776    3.8408   26.3416 C   0  0  0  0  0  0  0  0  0  0  0  0
   -9.9844    4.6492   26.4743 C   0  0  0  0  0  0  0  0  0  0  0  0
   -8.8033    6.1375   27.8728 C   0  0  0  0  0  0  0  0  0  0  0  0
   -9.9554    5.8280   27.1736 C   0  0  0  0  0  0  0  0  0  0  0  0
   -8.8740    2.6184   25.5584 C   0  0  0  0  0  0  0  0  0  0  0  0
   -9.7481    2.4811   24.4970 C   0  0  0  0  0  0  0  0  0  0  0  0
   -9.7537    1.3389   23.7601 C   0  0  0  0  0  0  0  0  0  0  0  0
   -8.7872    0.3087   24.0451 C   0  0  0  0  0  0  0  0  0  0  0  0
   -7.9652    0.4384   25.1261 C   0  0  0  0  0  0  0  0  0  0  0  0
   -7.9663    1.5885   25.9116 C   0  0  0  0  0  0  0  0  0  0  0  0
  -10.6209    1.1971   22.5956 C   0  0  0  0  0  0  0  0  0  0  0  0
  -10.5866    0.1836   21.8069 C   0  0  0  0  0  0  0  0  0  0  0  0
   -9.5538   -0.8727   22.0865 C   0  0  0  0  0  0  0  0  0  0  0  0
   -8.7510   -0.7995   23.1596 C   0  0  0  0  0  0  0  0  0  0  0  0
   -6.9952   -0.6163   25.4795 C   0  0  0  0  0  0  0  0  0  0  0  0
   -6.0045   -0.7422   24.9105 O   0  0  0  0  0  0  0  0  0  0  0  0
   -7.4184   -1.3894   26.4768 O   0  0  0  0  0  0  0  0  0  0  0  0
   -6.6858    5.5978   28.5995 F   0  0  0  0  0  0  0  0  0  0  0  0
   -8.0178   -1.1780   27.4420 C   0  0  0  0  0  0  0  0  0  0  0  0
   -9.3862   -1.1664   27.3938 C   0  0  0  0  0  0  0  0  0  0  0  0
  -10.1698   -0.8230   28.5655 C   0  0  0  0  0  0  0  0  0  0  0  0
  -11.4844   -0.4632   28.3792 C   0  0  0  0  0  0  0  0  0  0  0  0
  -12.1174   -0.6638   27.1464 C   0  0  0  0  0  0  0  0  0  0  0  0
  -11.4009   -1.0860   26.0470 C   0  0  0  0  0  0  0  0  0  0  0  0
  3  7  1  0
 11 17  1  0
 17 18  2  0
 17 19  1  0
  2 20  1  0
 19 21  1  0
 21 22  2  3
 22 23  1  0
 23 24  2  3
 24 25  1  0
 25 26  2  0
 10 16  2  0
 16 15  1  0
 15 14  2  0
 14 13  1  0
 13  9  2  0
  1  2  2  0
  2  5  1  0
  5  6  2  0
  6  4  1  0
  4  3  2  0
  3  1  1  0
  7  8  2  0
  8  9  1  0
  9 10  1  0
 10 11  1  0
 11 12  2  0
 12  7  1  0
M  END
$$$$
