No_8465-complexes_sdf/6BKW-FPZ/2024-09-17-14-21-01/
     RDKit          3D

 26 29  0  0  0  0  0  0  0  0999 V2000
   -7.7129    4.2099   27.0854 C   0  0  2  0  0  0  0  0  0  0  0  0
   -8.9133    4.4736   27.0998 C   0  0  0  0  0  0  0  0  0  0  0  0
   -9.4643    5.5426   27.7628 C   0  0  0  0  0  0  0  0  0  0  0  0
   -7.2009    2.9448   26.6134 C   0  0  0  0  0  0  0  0  0  0  0  0
   -8.1365    1.9533   26.2981 C   0  0  0  0  0  0  0  0  0  0  0  0
   -7.6295    0.6861   25.9574 C   0  0  0  0  0  0  0  0  0  0  0  0
   -9.8338    3.6042   26.3509 C   0  0  0  0  0  0  0  0  0  0  0  0
   -9.3834    2.3678   26.0141 C   0  0  0  0  0  0  0  0  0  0  0  0
   -8.0685    0.0668   24.8467 C   0  0  0  0  0  0  0  0  0  0  0  0
   -8.9584    0.7508   23.9911 C   0  0  0  0  0  0  0  0  0  0  0  0
   -9.8840    1.7181   24.7823 C   0  0  0  0  0  0  0  0  0  0  0  0
  -11.1364    2.0285   24.2522 C   0  0  0  0  0  0  0  0  0  0  0  0
  -12.1493    2.0940   25.0032 C   0  0  0  0  0  0  0  0  0  0  0  0
  -11.2325    2.4077   22.8580 C   0  0  0  0  0  0  0  0  0  0  0  0
  -13.4240    2.4131   24.5211 C   0  0  0  0  0  0  0  0  0  0  0  0
  -12.4721    2.7426   22.3345 C   0  0  0  0  0  0  0  0  0  0  0  0
  -13.5559    2.7686   23.1787 C   0  0  0  0  0  0  0  0  0  0  0  0
   -6.8101    4.8597   27.8850 F   0  0  0  0  0  0  0  0  0  0  0  0
   -7.4504   -1.1206   24.3060 C   0  0  0  0  0  0  0  0  0  0  0  0
   -7.2958   -1.3367   23.1563 N   0  0  0  0  0  0  0  0  0  0  0  0
   -6.6342   -2.3186   22.5007 C   0  0  0  0  0  0  0  0  0  0  0  0
   -7.1923   -3.2696   21.9615 C   0  0  0  0  0  0  0  0  0  0  0  0
   -6.5325   -4.3586   21.2505 C   0  0  0  0  0  0  0  0  0  0  0  0
   -5.1414   -4.2907   21.1595 C   0  0  0  0  0  0  0  0  0  0  0  0
   -4.4805   -3.2095   21.6323 C   0  0  0  0  0  0  0  0  0  0  0  0
   -5.1540   -2.1717   22.3321 C   0  0  0  0  0  0  0  0  0  0  0  0
  1  2  1  0
  2  3  2  0
  1  4  1  0
  4  5  1  0
  2  7  1  0
  7  8  1  0
 11 12  1  0
  1 18  1  1
  9 19  1  0
 19 20  2  3
 20 21  1  0
  5  6  2  0
  6  9  1  0
  9 10  2  0
 10 11  1  0
 11  8  2  0
  8  5  1  0
 12 13  2  0
 13 15  1  0
 15 17  2  0
 17 16  1  0
 16 14  2  0
 14 12  1  0
 21 22  2  0
 22 23  1  0
 23 24  2  0
 24 25  1  0
 25 26  2  0
 26 21  1  0
M  END
$$$$
