No_8360-complexes_sdf/6BKW-FPZ/2024-09-17-14-21-01/
     RDKit          3D

 40 45  0  0  0  0  0  0  0  0999 V2000
   -7.9040    3.9820   27.1177 C   0  0  0  0  0  0  0  0  0  0  0  0
   -9.0711    4.3164   27.0630 C   0  0  0  0  0  0  0  0  0  0  0  0
   -9.5294    5.4517   27.7215 C   0  0  0  0  0  0  0  0  0  0  0  0
   -7.4336    2.7132   26.5681 C   0  0  0  0  0  0  0  0  0  0  0  0
   -8.3353    1.8569   26.0442 C   0  0  0  0  0  0  0  0  0  0  0  0
   -9.6477    2.2853   25.9146 C   0  0  0  0  0  0  0  0  0  0  0  0
  -10.0346    3.4497   26.4483 C   0  0  2  0  0  0  0  0  0  0  0  0
   -7.8750    0.5509   25.5918 C   0  0  0  0  0  0  0  0  0  0  0  0
   -8.0040    0.2730   24.4392 O   0  0  0  0  0  0  0  0  0  0  0  0
   -7.3963   -0.2648   26.4783 O   0  0  0  0  0  0  0  0  0  0  0  0
   -6.9060    4.6959   27.8685 N   0  0  0  0  0  0  0  0  0  0  0  0
   -7.2515    5.8736   28.4583 C   0  0  0  0  0  0  0  0  0  0  0  0
   -8.5674    6.2499   28.3351 N   0  0  0  0  0  0  0  0  0  0  0  0
   -7.4486   -0.2842   27.6396 C   0  0  0  0  0  0  0  0  0  0  0  0
   -7.0486   -1.5680   28.3295 C   0  0  0  0  0  0  0  0  0  0  0  0
   -5.8383   -1.4741   28.9305 C   0  0  0  0  0  0  0  0  0  0  0  0
   -5.0881   -0.2578   28.9861 C   0  0  0  0  0  0  0  0  0  0  0  0
   -3.8408   -0.1106   29.6912 C   0  0  0  0  0  0  0  0  0  0  0  0
   -3.3537   -1.1342   30.4773 C   0  0  0  0  0  0  0  0  0  0  0  0
   -4.1151   -2.3185   30.5068 C   0  0  0  0  0  0  0  0  0  0  0  0
   -5.2831   -2.4585   29.8398 C   0  0  0  0  0  0  0  0  0  0  0  0
  -11.4210    3.8787   26.1810 C   0  0  0  0  0  0  0  0  0  0  0  0
  -12.2860    3.7923   27.2901 C   0  0  0  0  0  0  0  0  0  0  0  0
  -13.5803    4.2341   27.2759 C   0  0  0  0  0  0  0  0  0  0  0  0
  -14.0663    4.6254   25.9656 C   0  0  0  0  0  0  0  0  0  0  0  0
  -13.1960    4.6477   24.8617 C   0  0  0  0  0  0  0  0  0  0  0  0
  -11.8450    4.2965   24.9935 C   0  0  0  0  0  0  0  0  0  0  0  0
  -14.5769    4.3299   28.3504 C   0  0  0  0  0  0  0  0  0  0  0  0
  -14.1497    3.9670   29.4873 N   0  0  0  0  0  0  0  0  0  0  0  0
  -13.0771    3.3988   29.7754 C   0  0  0  0  0  0  0  0  0  0  0  0
  -12.0150    3.3472   28.7357 C   0  0  0  0  0  0  0  0  0  0  0  0
  -15.1255    4.0919   30.6701 C   0  0  0  0  0  0  0  0  0  0  0  0
  -11.0582    4.2943   23.9866 F   0  0  0  0  0  0  0  0  0  0  0  0
  -14.7108    3.7503   31.7467 C   0  0  0  0  0  0  0  0  0  0  0  0
  -15.4359    3.9101   32.9943 C   0  0  0  0  0  0  0  0  0  0  0  0
  -16.7130    4.4493   32.8708 C   0  0  0  0  0  0  0  0  0  0  0  0
  -16.2643    4.8679   30.4782 C   0  0  0  0  0  0  0  0  0  0  0  0
  -16.9309    5.1233   31.4607 C   0  0  0  0  0  0  0  0  0  0  0  0
  -15.5256    5.0667   28.0475 O   0  0  0  0  0  0  0  0  0  0  0  0
   -2.2150   -0.9637   31.1771 O   0  0  0  0  0  0  0  0  0  0  0  0
  1  4  1  0
  4  5  1  0
  5  6  1  0
  2  7  1  0
  6  7  1  0
  5  8  1  0
  8  9  2  0
  8 10  1  0
 10 14  1  0
 14 15  2  3
 15 16  1  0
  7 22  1  6
 24 28  1  0
 28 29  1  0
 29 30  1  0
 23 31  1  0
 29 32  1  0
 27 33  1  0
 28 39  2  0
 19 40  1  0
 31 30  1  0
 22 23  2  0
 23 24  1  0
 24 25  2  0
 25 26  1  0
 26 27  2  0
 27 22  1  0
  1  2  1  0
  2  3  2  0
  3 13  1  0
 13 12  2  0
 12 11  1  0
 11  1  2  0
 32 34  2  0
 34 35  1  0
 35 36  2  0
 36 38  1  0
 38 37  2  0
 37 32  1  0
 16 17  2  0
 17 18  1  0
 18 19  2  0
 19 20  1  0
 20 21  2  0
 21 16  1  0
M  END
$$$$
