No_8050-complexes_sdf/6BKW-FPZ/2024-09-17-14-21-01/
     RDKit          3D

 40 44  0  0  0  0  0  0  0  0999 V2000
   -7.9040    3.9820   27.1177 C   0  0  0  0  0  0  0  0  0  0  0  0
   -7.8663    4.8694   27.9238 C   0  0  0  0  0  0  0  0  0  0  0  0
   -9.0491    3.8523   26.2542 C   0  0  0  0  0  0  0  0  0  0  0  0
   -8.7661    5.9491   27.9690 C   0  0  0  0  0  0  0  0  0  0  0  0
   -9.9295    4.8502   26.2323 C   0  0  0  0  0  0  0  0  0  0  0  0
   -9.8077    5.9288   27.0933 C   0  0  0  0  0  0  0  0  0  0  0  0
   -9.0726    2.7074   25.3087 C   0  0  0  0  0  0  0  0  0  0  0  0
  -10.0632    2.7302   24.3178 C   0  0  0  0  0  0  0  0  0  0  0  0
  -10.9336    3.8766   24.2566 C   0  0  0  0  0  0  0  0  0  0  0  0
  -10.9057    4.8221   25.1699 C   0  0  0  0  0  0  0  0  0  0  0  0
  -11.9566    3.8116   23.1908 C   0  0  0  0  0  0  0  0  0  0  0  0
  -12.5922    2.9941   23.2067 C   0  0  0  0  0  0  0  0  0  0  0  0
  -13.3200    2.6335   21.8982 C   0  0  0  0  0  0  0  0  0  0  0  0
  -13.2980    3.5400   20.8790 C   0  0  0  0  0  0  0  0  0  0  0  0
  -12.4211    4.6454   20.9717 C   0  0  0  0  0  0  0  0  0  0  0  0
  -11.6203    4.7898   22.0840 C   0  0  0  0  0  0  0  0  0  0  0  0
   -6.7302    2.6784   27.2363 Cl  0  0  0  0  0  0  0  0  0  0  0  0
  -14.3653    1.5907   21.8193 C   0  0  0  0  0  0  0  0  0  0  0  0
  -14.6596    1.0554   20.8521 C   0  0  0  0  0  0  0  0  0  0  0  0
  -15.4732   -0.1204   20.7976 C   0  0  0  0  0  0  0  0  0  0  0  0
  -15.9428   -0.5830   22.0275 C   0  0  0  0  0  0  0  0  0  0  0  0
  -15.5953    0.0033   23.1748 C   0  0  0  0  0  0  0  0  0  0  0  0
  -14.7229    1.0830   23.2078 C   0  0  0  0  0  0  0  0  0  0  0  0
  -16.7776   -1.6595   21.9761 O   0  0  0  0  0  0  0  0  0  0  0  0
  -17.2223   -2.2588   23.0828 C   0  0  0  0  0  0  0  0  0  0  0  0
  -17.7946   -1.7368   23.9296 C   0  0  0  0  0  0  0  0  0  0  0  0
  -18.1764   -2.3405   25.2188 C   0  0  0  0  0  0  0  0  0  0  0  0
  -18.0454   -3.7452   25.2210 C   0  0  0  0  0  0  0  0  0  0  0  0
  -17.4465   -4.3846   24.1768 C   0  0  0  0  0  0  0  0  0  0  0  0
  -16.9797   -3.6716   23.1088 C   0  0  0  0  0  0  0  0  0  0  0  0
  -17.2583   -5.8293   24.2093 C   0  0  0  0  0  0  0  0  0  0  0  0
  -16.5179   -6.2926   24.9704 O   0  0  0  0  0  0  0  0  0  0  0  0
  -17.6656   -6.4282   23.0516 O   0  0  0  0  0  0  0  0  0  0  0  0
  -18.8566   -1.6066   26.2802 C   0  0  0  0  0  0  0  0  0  0  0  0
  -19.2964   -0.5952   26.1833 O   0  0  0  0  0  0  0  0  0  0  0  0
  -19.0578   -2.4028   27.3711 O   0  0  0  0  0  0  0  0  0  0  0  0
  -15.9212   -0.7097   19.5731 C   0  0  0  0  0  0  0  0  0  0  0  0
  -15.4919   -0.5482   18.6421 O   0  0  0  0  0  0  0  0  0  0  0  0
  -16.9769   -1.5295   19.6504 O   0  0  0  0  0  0  0  0  0  0  0  0
  -17.8676   -1.4270   18.8481 C   0  0  0  0  0  0  0  0  0  0  0  0
  9 11  1  0
  1 17  1  0
 13 18  1  0
 21 24  1  0
 24 25  1  0
 29 31  1  0
 31 32  2  0
 31 33  1  0
 27 34  1  0
 34 35  2  0
 34 36  1  0
 20 37  1  0
 37 38  2  0
 37 39  1  0
 39 40  1  0
 18 19  2  0
 19 20  1  0
 20 21  2  0
 21 22  1  0
 22 23  2  0
 23 18  1  0
 25 26  2  0
 26 27  1  0
 27 28  2  0
 28 29  1  0
 29 30  2  0
 30 25  1  0
 11 12  2  0
 12 13  1  0
 13 14  2  0
 14 15  1  0
 15 16  2  0
 16 11  1  0
  5 10  2  0
 10  9  1  0
  9  8  2  0
  8  7  1  0
  7  3  2  0
  1  2  2  0
  2  4  1  0
  4  6  2  0
  6  5  1  0
  5  3  1  0
  3  1  1  0
M  END
$$$$
