No_8104-complexes_sdf/6BKW-FPZ/2024-09-17-14-21-01/
     RDKit          3D

 26 29  0  0  0  0  0  0  0  0999 V2000
   -7.2496    3.8871   27.4508 C   0  0  0  0  0  0  0  0  0  0  0  0
   -8.5096    4.0291   27.2770 C   0  0  0  0  0  0  0  0  0  0  0  0
   -9.2677    5.1714   27.5773 C   0  0  0  0  0  0  0  0  0  0  0  0
   -6.5711    2.6400   27.2842 C   0  0  0  0  0  0  0  0  0  0  0  0
   -5.3357    2.3703   27.8498 C   0  0  0  0  0  0  0  0  0  0  0  0
   -7.4740    1.4919   27.1376 C   0  0  0  0  0  0  0  0  0  0  0  0
   -8.7958    1.6719   26.8916 C   0  0  0  0  0  0  0  0  0  0  0  0
   -9.3761    2.8993   27.0989 C   0  0  0  0  0  0  0  0  0  0  0  0
   -4.7127    1.0898   27.8928 C   0  0  0  0  0  0  0  0  0  0  0  0
   -5.5713    0.0032   27.5379 C   0  0  0  0  0  0  0  0  0  0  0  0
   -6.9079    0.1871   27.2116 C   0  0  0  0  0  0  0  0  0  0  0  0
  -10.6628    5.3028   27.5687 C   0  0  0  0  0  0  0  0  0  0  0  0
  -11.4794    4.1927   27.3195 C   0  0  0  0  0  0  0  0  0  0  0  0
  -10.8118    2.9515   27.1133 C   0  0  0  0  0  0  0  0  0  0  0  0
   -3.4696    0.9571   28.2093 O   0  0  0  0  0  0  0  0  0  0  0  0
   -8.4999    6.5142   27.6909 C   0  0  0  0  0  0  0  0  0  0  0  0
   -3.0886   -0.2653   28.7502 C   0  0  0  0  0  0  0  0  0  0  0  0
   -2.4406   -1.0005   28.1291 C   0  0  0  0  0  0  0  0  0  0  0  0
   -3.3477   -0.4062   30.2086 C   0  0  0  0  0  0  0  0  0  0  0  0
   -4.1925    0.4637   30.9868 C   0  0  0  0  0  0  0  0  0  0  0  0
   -2.6551   -1.4792   30.8666 C   0  0  0  0  0  0  0  0  0  0  0  0
   -1.8418   -2.3192   30.2589 C   0  0  0  0  0  0  0  0  0  0  0  0
   -1.6541   -2.0662   28.8303 C   0  0  0  0  0  0  0  0  0  0  0  0
  -11.6391    1.7551   27.0056 C   0  0  0  0  0  0  0  0  0  0  0  0
  -11.9191    1.2015   25.8792 C   0  0  0  0  0  0  0  0  0  0  0  0
  -12.6103   -0.0048   25.7787 C   0  0  0  0  0  0  0  0  0  0  0  0
  9 15  1  0
  3 16  1  0
 15 17  1  0
 19 20  1  0
 14 24  1  0
 24 25  2  3
 25 26  1  0
  1  2  2  0
  8  7  2  0
  7  6  1  0
  4  1  1  0
 17 18  2  0
 18 23  1  0
 23 22  2  0
 22 21  1  0
 21 19  2  0
 19 17  1  0
  2  3  1  0
  3 12  2  0
 12 13  1  0
 13 14  2  0
 14  8  1  0
  8  2  1  0
  4  5  2  0
  5  9  1  0
  9 10  2  0
 10 11  1  0
 11  6  2  0
  6  4  1  0
M  END
$$$$
