No_8117-complexes_sdf/6BKW-FPZ/2024-09-17-14-21-01/
     RDKit          3D

 35 40  0  0  0  0  0  0  0  0999 V2000
   -7.7129    4.2099   27.0854 C   0  0  0  0  0  0  0  0  0  0  0  0
   -7.7814    5.1722   27.8972 C   0  0  0  0  0  0  0  0  0  0  0  0
   -7.2983    2.9533   27.5684 C   0  0  0  0  0  0  0  0  0  0  0  0
   -7.6908    1.8111   26.9553 C   0  0  1  0  0  0  0  0  0  0  0  0
   -8.6533    1.9165   25.9430 C   0  0  0  0  0  0  0  0  0  0  0  0
   -9.2376    3.0581   25.6387 C   0  0  0  0  0  0  0  0  0  0  0  0
   -8.8901    4.1760   26.2867 C   0  0  0  0  0  0  0  0  0  0  0  0
   -8.3432    6.4292   27.5920 N   0  0  0  0  0  0  0  0  0  0  0  0
   -9.4193    5.4820   25.9990 C   0  0  0  0  0  0  0  0  0  0  0  0
   -9.1096    6.5898   26.6840 C   0  0  0  0  0  0  0  0  0  0  0  0
   -7.0394    0.5390   27.2227 C   0  0  0  0  0  0  0  0  0  0  0  0
   -5.7976    0.4716   27.8814 C   0  0  0  0  0  0  0  0  0  0  0  0
   -5.1578   -0.4203   28.0301 C   0  0  0  0  0  0  0  0  0  0  0  0
   -5.6744   -1.7201   27.8395 C   0  0  0  0  0  0  0  0  0  0  0  0
   -7.5238   -0.6879   26.9353 C   0  0  0  0  0  0  0  0  0  0  0  0
   -6.8840   -1.8211   27.2358 C   0  0  0  0  0  0  0  0  0  0  0  0
   -3.7527   -0.3957   28.8167 C   0  0  0  0  0  0  0  0  0  0  0  0
   -3.5233    0.5873   29.8321 C   0  0  0  0  0  0  0  0  0  0  0  0
   -2.6861   -1.1698   28.3447 C   0  0  0  0  0  0  0  0  0  0  0  0
  -10.2292    3.0503   24.5436 C   0  0  0  0  0  0  0  0  0  0  0  0
  -10.2532    2.2641   23.5652 C   0  0  0  0  0  0  0  0  0  0  0  0
  -11.1599    2.2956   22.5198 C   0  0  0  0  0  0  0  0  0  0  0  0
  -12.0138    3.3772   22.4192 C   0  0  0  0  0  0  0  0  0  0  0  0
  -11.9831    4.3499   23.3976 C   0  0  0  0  0  0  0  0  0  0  0  0
  -11.1026    4.2908   24.4311 C   0  0  0  0  0  0  0  0  0  0  0  0
  -10.4768    5.3904   25.0329 N   0  0  0  0  0  0  0  0  0  0  0  0
   -1.9911   -1.7698   29.2211 C   0  0  0  0  0  0  0  0  0  0  0  0
   -2.5934    0.0855   30.8549 C   0  0  0  0  0  0  0  0  0  0  0  0
   -1.7262   -1.0085   30.5270 C   0  0  0  0  0  0  0  0  0  0  0  0
   -7.4819   -3.0951   26.8963 C   0  0  0  0  0  0  0  0  0  0  0  0
   -8.5093   -3.1621   26.4128 C   0  0  0  0  0  0  0  0  0  0  0  0
   -9.1800   -4.3238   26.0886 C   0  0  0  0  0  0  0  0  0  0  0  0
  -10.4870   -4.3545   25.4542 C   0  0  0  0  0  0  0  0  0  0  0  0
  -11.0462   -3.1386   25.1275 C   0  0  0  0  0  0  0  0  0  0  0  0
  -10.4396   -1.9359   25.3900 C   0  0  0  0  0  0  0  0  0  0  0  0
  1  3  1  0
  3  4  1  0
  4  5  1  0
  5  6  1  0
  6  7  1  0
  4 11  1  6
 13 17  1  0
  6 20  1  0
  9 26  1  0
 25 26  1  0
 16 30  1  0
 30 31  2  3
 31 32  1  0
 32 33  2  3
 33 34  1  0
 34 35  2  0
 17 18  2  0
 18 28  1  0
 28 29  2  0
 29 27  1  0
 27 19  2  0
 19 17  1  0
  1  2  2  0
  2  8  1  0
  8 10  2  0
 10  9  1  0
  9  7  2  0
  7  1  1  0
 11 12  2  0
 12 13  1  0
 13 14  2  0
 14 16  1  0
 16 15  2  0
 15 11  1  0
 20 21  2  0
 21 22  1  0
 22 23  2  0
 23 24  1  0
 24 25  2  0
 25 20  1  0
M  END
$$$$
