No_8690-complexes_sdf/6BKW-FPZ/2024-09-17-14-21-01/
     RDKit          3D

 28 31  0  0  0  0  0  0  0  0999 V2000
   -7.2496    3.8871   27.4508 C   0  0  0  0  0  0  0  0  0  0  0  0
   -7.9379    4.9063   27.8518 C   0  0  0  0  0  0  0  0  0  0  0  0
   -9.3376    4.8647   27.7795 C   0  0  0  0  0  0  0  0  0  0  0  0
   -7.8544    2.6294   27.0414 C   0  0  0  0  0  0  0  0  0  0  0  0
   -9.2665    2.6175   27.0340 C   0  0  0  0  0  0  0  0  0  0  0  0
   -9.9997    3.7317   27.4757 C   0  0  0  0  0  0  0  0  0  0  0  0
  -11.4954    3.8619   27.4980 C   0  0  0  0  0  0  0  0  0  0  0  0
  -12.1180    3.9328   28.6270 C   0  0  0  0  0  0  0  0  0  0  0  0
  -13.5471    4.0061   28.8065 C   0  0  0  0  0  0  0  0  0  0  0  0
  -14.2619    4.0229   27.5971 C   0  0  0  0  0  0  0  0  0  0  0  0
  -12.2516    3.8934   26.3602 C   0  0  0  0  0  0  0  0  0  0  0  0
  -13.5933    4.0586   26.3967 C   0  0  0  0  0  0  0  0  0  0  0  0
   -9.9615    1.3851   26.6929 C   0  0  0  0  0  0  0  0  0  0  0  0
   -9.5101    0.3040   27.1697 C   0  0  0  0  0  0  0  0  0  0  0  0
  -10.1515   -1.0010   26.9405 C   0  0  0  0  0  0  0  0  0  0  0  0
  -11.3362   -0.9277   26.2548 C   0  0  0  0  0  0  0  0  0  0  0  0
  -11.8545    0.2819   25.7998 C   0  0  0  0  0  0  0  0  0  0  0  0
  -11.1533    1.4284   26.0594 C   0  0  0  0  0  0  0  0  0  0  0  0
   -7.1332    6.3721   28.3472 Cl  0  0  0  0  0  0  0  0  0  0  0  0
  -14.2130    4.1222   30.1202 C   0  0  0  0  0  0  0  0  0  0  0  0
  -15.1131    4.9944   30.4252 C   0  0  0  0  0  0  0  0  0  0  0  0
  -15.5725    5.2127   31.7374 C   0  0  0  0  0  0  0  0  0  0  0  0
  -15.0482    4.4401   32.7658 C   0  0  0  0  0  0  0  0  0  0  0  0
  -14.0539    3.4852   32.5017 C   0  0  0  0  0  0  0  0  0  0  0  0
  -13.5335    3.3389   31.1845 C   0  0  0  0  0  0  0  0  0  0  0  0
  -14.4077    4.1033   25.1882 C   0  0  0  0  0  0  0  0  0  0  0  0
  -15.3402    4.8445   25.0115 C   0  0  0  0  0  0  0  0  0  0  0  0
  -16.0617    5.0129   23.7675 C   0  0  0  0  0  0  0  0  0  0  0  0
  6  7  1  0
  5 13  1  0
  2 19  1  0
  9 20  1  0
 12 26  1  0
 26 27  2  3
 27 28  1  0
  7  8  2  0
  8  9  1  0
  9 10  2  0
 10 12  1  0
 12 11  2  0
 11  7  1  0
 13 14  2  0
 14 15  1  0
 15 16  2  0
 16 17  1  0
 17 18  2  0
 18 13  1  0
  1  2  2  0
  2  3  1  0
  3  6  2  0
  6  5  1  0
  5  4  2  0
  4  1  1  0
 20 21  2  0
 21 22  1  0
 22 23  2  0
 23 24  1  0
 24 25  2  0
 25 20  1  0
M  END
$$$$
