No_8127-complexes_sdf/6BKW-FPZ/2024-09-17-14-21-01/
     RDKit          3D

 29 32  0  0  0  0  0  0  0  0999 V2000
   -7.2496    3.8871   27.4508 C   0  0  0  0  0  0  0  0  0  0  0  0
   -7.6161    2.7143   27.1523 C   0  0  0  0  0  0  0  0  0  0  0  0
   -8.8302    2.4659   26.5056 C   0  0  0  0  0  0  0  0  0  0  0  0
   -8.1584    5.0090   27.3234 C   0  0  0  0  0  0  0  0  0  0  0  0
   -9.3788    4.7965   26.7695 C   0  0  0  0  0  0  0  0  0  0  0  0
   -9.7028    3.5649   26.3276 C   0  0  0  0  0  0  0  0  0  0  0  0
   -6.7182    1.5519   27.3631 C   0  0  0  0  0  0  0  0  0  0  0  0
   -7.0500    0.2083   27.2450 C   0  0  0  0  0  0  0  0  0  0  0  0
   -6.2063   -0.7601   27.5521 C   0  0  0  0  0  0  0  0  0  0  0  0
   -4.9394   -0.4352   28.1041 C   0  0  0  0  0  0  0  0  0  0  0  0
   -4.5672    0.8802   28.2862 C   0  0  0  0  0  0  0  0  0  0  0  0
   -5.4068    1.8597   27.9844 C   0  0  0  0  0  0  0  0  0  0  0  0
   -7.6942    6.3581   27.7806 C   0  0  0  0  0  0  0  0  0  0  0  0
  -11.0008    3.3427   25.6431 C   0  0  0  0  0  0  0  0  0  0  0  0
  -12.1241    2.9933   26.3165 C   0  0  0  0  0  0  0  0  0  0  0  0
  -11.0720    3.4846   24.2169 C   0  0  0  0  0  0  0  0  0  0  0  0
   -9.9871    3.8866   23.4150 C   0  0  0  0  0  0  0  0  0  0  0  0
  -12.3656    3.9441   23.8172 C   0  0  0  0  0  0  0  0  0  0  0  0
  -13.3665    3.1982   25.8560 C   0  0  0  0  0  0  0  0  0  0  0  0
  -13.3312    3.8890   24.5630 C   0  0  0  0  0  0  0  0  0  0  0  0
   -4.0080   -1.5648   28.5191 C   0  0  0  0  0  0  0  0  0  0  0  0
   -4.2603   -2.5134   29.0504 C   0  0  0  0  0  0  0  0  0  0  0  0
   -3.2678   -3.5213   29.4574 C   0  0  0  0  0  0  0  0  0  0  0  0
   -2.8051   -1.6705   27.7648 C   0  0  0  0  0  0  0  0  0  0  0  0
   -1.7801   -2.5206   27.9802 C   0  0  0  0  0  0  0  0  0  0  0  0
   -2.0718   -3.5278   28.8579 C   0  0  0  0  0  0  0  0  0  0  0  0
  -14.5703    3.0849   26.5962 C   0  0  0  0  0  0  0  0  0  0  0  0
  -15.5532    3.5240   26.4461 C   0  0  0  0  0  0  0  0  0  0  0  0
  -16.8041    3.3308   27.2482 C   0  0  0  0  0  0  0  0  0  0  0  0
  2  7  1  0
  4 13  1  0
  6 14  1  0
 16 17  1  0
 10 21  1  0
 19 27  1  0
 27 28  2  3
 28 29  1  0
 14 15  2  0
 15 19  1  0
 19 20  2  0
 20 18  1  0
 18 16  2  0
 16 14  1  0
  1  2  2  0
  2  3  1  0
  3  6  2  0
  6  5  1  0
  5  4  2  0
  4  1  1  0
 21 22  2  0
 22 23  1  0
 23 26  2  0
 26 25  1  0
 25 24  2  0
 24 21  1  0
  7  8  2  0
  8  9  1  0
  9 10  2  0
 10 11  1  0
 11 12  2  0
 12  7  1  0
M  END
$$$$
