No_8746-complexes_sdf/6BKW-FPZ/2024-09-17-14-21-01/
     RDKit          3D

 18 18  0  0  0  0  0  0  0  0999 V2000
   -7.7129    4.2099   27.0854 C   0  0  0  0  0  0  0  0  0  0  0  0
   -8.2112    3.0637   26.9225 C   0  0  0  0  0  0  0  0  0  0  0  0
   -9.4446    2.8304   26.1868 C   0  0  0  0  0  0  0  0  0  0  0  0
   -8.4697    5.3956   26.7238 C   0  0  0  0  0  0  0  0  0  0  0  0
   -9.6172    5.2111   25.9513 C   0  0  0  0  0  0  0  0  0  0  0  0
  -10.0424    3.9782   25.6873 C   0  0  0  0  0  0  0  0  0  0  0  0
   -7.9172    6.7181   27.0124 C   0  0  0  0  0  0  0  0  0  0  0  0
   -8.3317    7.7637   26.4410 O   0  0  0  0  0  0  0  0  0  0  0  0
   -7.2950    6.8000   28.2253 O   0  0  0  0  0  0  0  0  0  0  0  0
   -7.4921    1.8049   27.3761 C   0  0  0  0  0  0  0  0  0  0  0  0
   -6.3231    1.9472   27.8484 O   0  0  0  0  0  0  0  0  0  0  0  0
   -8.0351    0.6083   27.3032 N   0  0  0  0  0  0  0  0  0  0  0  0
   -7.3694   -0.6096   27.7437 C   0  0  0  0  0  0  0  0  0  0  0  0
   -6.1940   -0.6509   27.9870 C   0  0  0  0  0  0  0  0  0  0  0  0
   -5.4482   -1.8208   28.3328 C   0  0  0  0  0  0  0  0  0  0  0  0
   -4.0895   -1.7842   28.7462 C   0  0  0  0  0  0  0  0  0  0  0  0
   -3.3599   -0.5618   28.7479 C   0  0  0  0  0  0  0  0  0  0  0  0
   -4.0799    0.6194   28.3394 C   0  0  0  0  0  0  0  0  0  0  0  0
  4  7  1  0
  7  8  2  0
  7  9  1  0
  2 10  1  0
 10 11  2  0
 10 12  1  0
 12 13  1  0
 13 14  2  3
 14 15  1  0
 15 16  1  0
 16 17  2  3
 17 18  1  0
  1  2  2  0
  2  3  1  0
  3  6  2  0
  6  5  1  0
  5  4  2  0
  4  1  1  0
M  END
$$$$
