No_885-complexes_sdf/6BKW-FPZ/2024-09-17-14-21-01/
     RDKit          3D

 24 27  0  0  0  0  0  0  0  0999 V2000
   -7.7129    4.2099   27.0854 C   0  0  0  0  0  0  0  0  0  0  0  0
   -8.9133    4.4736   27.0998 C   0  0  0  0  0  0  0  0  0  0  0  0
   -9.7937    3.7368   26.2091 C   0  0  0  0  0  0  0  0  0  0  0  0
   -7.2495    2.8647   26.8496 C   0  0  0  0  0  0  0  0  0  0  0  0
   -8.1891    1.9790   26.3454 C   0  0  0  0  0  0  0  0  0  0  0  0
   -9.4252    2.4603   26.0121 C   0  0  0  0  0  0  0  0  0  0  0  0
   -9.2833    5.8127   27.2182 F   0  0  0  0  0  0  0  0  0  0  0  0
   -7.7652    0.5966   26.1379 C   0  0  0  0  0  0  0  0  0  0  0  0
   -6.9528    0.0095   26.9550 N   0  0  0  0  0  0  0  0  0  0  0  0
   -6.4147   -1.1570   26.8947 C   0  0  0  0  0  0  0  0  0  0  0  0
   -8.2759   -0.0943   25.2450 O   0  0  0  0  0  0  0  0  0  0  0  0
   -5.5432   -1.3927   27.7529 C   0  0  0  0  0  0  0  0  0  0  0  0
   -5.2870   -0.2860   28.5891 C   0  0  0  0  0  0  0  0  0  0  0  0
   -6.1574    0.7562   28.0254 C   0  0  0  0  0  0  0  0  0  0  0  0
   -4.3434   -0.0149   29.6472 C   0  0  1  0  0  0  0  0  0  0  0  0
   -3.8778    1.0210   29.9302 N   0  0  0  0  0  0  0  0  0  0  0  0
   -4.1292   -1.1310   30.5699 C   0  0  0  0  0  0  0  0  0  0  0  0
   -4.4382   -2.2141   30.6856 C   0  0  0  0  0  0  0  0  0  0  0  0
   -3.1001   -0.5004   31.6371 C   0  0  0  0  0  0  0  0  0  0  0  0
   -2.5735   -1.2811   32.5997 N   0  0  0  0  0  0  0  0  0  0  0  0
   -4.0043   -3.0847   31.8637 C   0  0  0  0  0  0  0  0  0  0  0  0
   -3.0922   -2.5436   32.7570 C   0  0  0  0  0  0  0  0  0  0  0  0
   -2.8258    0.7976   31.3114 N   0  0  0  0  0  0  0  0  0  0  0  0
   -2.6164   -3.2459   33.7103 F   0  0  0  0  0  0  0  0  0  0  0  0
  2  7  1  0
  5  8  1  0
  8  9  1  0
  9 10  1  0
  8 11  2  0
 10 12  2  0
 12 13  1  0
  9 14  1  0
 13 14  2  0
 15 13  1  1
 15 16  1  0
 15 17  1  0
 16 23  2  0
 19 23  1  0
 22 24  1  0
  1  2  2  0
  2  3  1  0
  3  6  2  0
  6  5  1  0
  5  4  2  0
  4  1  1  0
 17 18  2  0
 18 21  1  0
 21 22  2  0
 22 20  1  0
 20 19  2  0
 19 17  1  0
M  END
$$$$
