No_8863-complexes_sdf/6BKW-FPZ/2024-09-17-14-21-01/
     RDKit          3D

 21 23  0  0  0  0  0  0  0  0999 V2000
   -7.9040    3.9820   27.1177 C   0  0  0  0  0  0  0  0  0  0  0  0
   -9.0711    4.3164   27.0630 C   0  0  0  0  0  0  0  0  0  0  0  0
   -9.9692    3.7224   26.1073 C   0  0  0  0  0  0  0  0  0  0  0  0
   -6.9787    4.6761   28.1003 C   0  0  0  0  0  0  0  0  0  0  0  0
   -9.4538    2.6801   25.3673 C   0  0  0  0  0  0  0  0  0  0  0  0
   -8.1927    2.1957   25.6621 C   0  0  0  0  0  0  0  0  0  0  0  0
   -7.4333    2.8255   26.6299 C   0  0  0  0  0  0  0  0  0  0  0  0
  -10.4516    2.1491   24.4014 C   0  0  0  0  0  0  0  0  0  0  0  0
  -10.1768    2.0348   23.3134 C   0  0  0  0  0  0  0  0  0  0  0  0
  -11.0099    1.4810   22.1762 C   0  0  0  0  0  0  0  0  0  0  0  0
  -12.2727    1.1340   22.5713 C   0  0  0  0  0  0  0  0  0  0  0  0
  -11.7768    1.7754   24.7105 C   0  0  0  0  0  0  0  0  0  0  0  0
  -12.6307    1.3054   23.8659 C   0  0  0  0  0  0  0  0  0  0  0  0
   -7.5036    5.8034   28.6637 N   0  0  0  0  0  0  0  0  0  0  0  0
   -5.8256    4.3167   28.2803 O   0  0  0  0  0  0  0  0  0  0  0  0
  -13.1699    0.5973   21.5135 C   0  0  0  0  0  0  0  0  0  0  0  0
  -14.3465    0.3936   21.6191 C   0  0  0  0  0  0  0  0  0  0  0  0
  -15.1503   -0.1514   20.5425 C   0  0  0  0  0  0  0  0  0  0  0  0
  -14.4950   -0.4266   19.3497 C   0  0  0  0  0  0  0  0  0  0  0  0
  -13.1564   -0.2049   19.1937 C   0  0  0  0  0  0  0  0  0  0  0  0
  -12.3689    0.3308   20.2186 C   0  0  0  0  0  0  0  0  0  0  0  0
  1  4  1  0
  5  8  1  0
  4 14  1  0
  4 15  2  0
 11 16  1  0
 16 17  2  0
 17 18  1  0
 18 19  2  0
 19 20  1  0
 20 21  2  0
 21 16  1  0
  8  9  2  0
  9 10  1  0
 10 11  2  0
 11 13  1  0
 13 12  2  0
 12  8  1  0
  1  2  2  0
  2  3  1  0
  3  5  2  0
  5  6  1  0
  6  7  2  0
  7  1  1  0
M  END
$$$$
