No_8580-complexes_sdf/6BKW-FPZ/2024-09-17-14-21-01/
     RDKit          3D

  9  8  0  0  0  0  0  0  0  0999 V2000
   -7.7129    4.2099   27.0854 C   0  0  0  0  0  0  0  0  0  0  0  0
   -8.9133    4.4736   27.0998 C   0  0  1  0  0  0  0  0  0  0  0  0
   -9.4643    5.5426   27.7628 C   0  0  0  0  0  0  0  0  0  0  0  0
   -9.8091    3.6358   26.2841 C   0  0  0  0  0  0  0  0  0  0  0  0
  -10.5514    4.0993   25.5100 C   0  0  0  0  0  0  0  0  0  0  0  0
   -6.9183    4.7931   28.2301 C   0  0  0  0  0  0  0  0  0  0  0  0
  -11.4829    3.3588   24.6503 C   0  0  0  0  0  0  0  0  0  0  0  0
  -11.3768    2.0606   24.6929 C   0  0  0  0  0  0  0  0  0  0  0  0
  -10.4740    1.4485   25.5986 C   0  0  0  0  0  0  0  0  0  0  0  0
  1  2  1  0
  2  3  1  6
  2  4  1  0
  4  5  2  3
  1  6  1  0
  5  7  1  0
  7  8  2  3
  8  9  1  0
M  END
$$$$
