No_8942-complexes_sdf/6BKW-FPZ/2024-09-17-14-21-01/
     RDKit          3D

 40 45  0  0  0  0  0  0  0  0999 V2000
   -7.9040    3.9820   27.1177 C   0  0  0  0  0  0  0  0  0  0  0  0
   -7.8663    4.8694   27.9238 C   0  0  0  0  0  0  0  0  0  0  0  0
   -9.0501    3.8017   26.2617 C   0  0  0  0  0  0  0  0  0  0  0  0
   -9.1826    2.7026   25.3575 C   0  0  0  0  0  0  0  0  0  0  0  0
   -8.6241    6.0053   27.5974 C   0  0  0  0  0  0  0  0  0  0  0  0
   -9.6577    6.0523   26.7101 C   0  0  0  0  0  0  0  0  0  0  0  0
   -9.7428    4.9359   25.9518 C   0  0  0  0  0  0  0  0  0  0  0  0
  -10.1485    2.6631   24.3935 C   0  0  0  0  0  0  0  0  0  0  0  0
  -10.9127    3.8725   24.1758 C   0  0  0  0  0  0  0  0  0  0  0  0
  -10.7157    4.9089   24.9179 C   0  0  0  0  0  0  0  0  0  0  0  0
   -6.9628    2.5018   27.5308 Cl  0  0  0  0  0  0  0  0  0  0  0  0
  -11.8977    3.8177   23.0766 C   0  0  2  0  0  0  0  0  0  0  0  0
  -11.4582    3.7711   21.8573 C   0  0  0  0  0  0  0  0  0  0  0  0
  -10.1596    3.9405   21.5315 C   0  0  0  0  0  0  0  0  0  0  0  0
   -9.7318    3.8365   20.1207 C   0  0  0  0  0  0  0  0  0  0  0  0
  -10.7009    3.6067   19.1602 C   0  0  0  0  0  0  0  0  0  0  0  0
  -12.0098    3.5038   19.4740 C   0  0  0  0  0  0  0  0  0  0  0  0
  -12.4243    3.6247   20.8045 C   0  0  0  0  0  0  0  0  0  0  0  0
  -13.2558    3.9389   23.5092 C   0  0  0  0  0  0  0  0  0  0  0  0
  -13.7432    3.6801   24.7089 C   0  0  0  0  0  0  0  0  0  0  0  0
  -15.0772    3.8951   25.0166 C   0  0  0  0  0  0  0  0  0  0  0  0
  -15.9245    4.2350   23.9807 C   0  0  0  0  0  0  0  0  0  0  0  0
  -15.4874    4.4833   22.7123 C   0  0  0  0  0  0  0  0  0  0  0  0
  -14.1435    4.3685   22.4737 C   0  0  0  0  0  0  0  0  0  0  0  0
  -13.7843    3.9187   21.1499 C   0  0  0  0  0  0  0  0  0  0  0  0
  -15.5896    3.7893   26.4216 C   0  0  0  0  0  0  0  0  0  0  0  0
  -15.3197    4.7724   27.2812 C   0  0  0  0  0  0  0  0  0  0  0  0
  -15.1812    5.9334   26.9528 F   0  0  0  0  0  0  0  0  0  0  0  0
  -16.0762    4.6688   28.5103 F   0  0  0  0  0  0  0  0  0  0  0  0
  -13.9733    4.4700   27.8071 F   0  0  0  0  0  0  0  0  0  0  0  0
  -12.9544    3.3883   18.3911 C   0  0  0  0  0  0  0  0  0  0  0  0
  -13.5669    2.1232   18.3144 C   0  0  0  0  0  0  0  0  0  0  0  0
  -13.2013    1.1301   18.9140 C   0  0  0  0  0  0  0  0  0  0  0  0
  -12.0883    0.7995   19.1700 C   0  0  0  0  0  0  0  0  0  0  0  0
  -11.5762   -0.3329   19.7781 C   0  0  0  0  0  0  0  0  0  0  0  0
  -10.1749   -0.5110   20.0874 C   0  0  0  0  0  0  0  0  0  0  0  0
  -12.0616   -1.5477   18.8940 C   0  0  0  0  0  0  0  0  0  0  0  0
  -11.6089   -2.4683   18.6892 C   0  0  0  0  0  0  0  0  0  0  0  0
   -9.5470   -1.7975   20.0154 C   0  0  0  0  0  0  0  0  0  0  0  0
  -10.1644   -2.7277   19.1804 C   0  0  0  0  0  0  0  0  0  0  0  0
  1 11  1  0
 12  9  1  6
 12 13  1  0
 12 19  1  0
 18 25  1  0
 24 25  1  0
 21 26  1  0
 26 27  1  0
 27 28  1  0
 27 29  1  0
 27 30  1  0
 17 31  1  0
 31 32  1  0
 32 33  1  0
 33 34  2  3
 34 35  1  0
  1  2  2  0
  2  5  1  0
  5  6  2  0
  6  7  1  0
  3  1  1  0
 19 20  2  0
 20 21  1  0
 21 22  2  0
 22 23  1  0
 23 24  2  0
 24 19  1  0
 35 36  2  0
 36 39  1  0
 39 40  2  0
 40 38  1  0
 38 37  2  0
 37 35  1  0
  3  4  2  0
  4  8  1  0
  8  9  2  0
  9 10  1  0
 10  7  2  0
  7  3  1  0
 13 14  2  0
 14 15  1  0
 15 16  2  0
 16 17  1  0
 17 18  2  0
 18 13  1  0
M  END
$$$$
