No_8019-complexes_sdf/6BKW-FPZ/2024-09-17-14-21-01/
     RDKit          3D

 25 27  0  0  0  0  0  0  0  0999 V2000
   -7.9040    3.9820   27.1177 C   0  0  0  0  0  0  0  0  0  0  0  0
   -8.2057    2.8231   26.8733 C   0  0  0  0  0  0  0  0  0  0  0  0
   -8.7695    5.0740   26.7916 C   0  0  0  0  0  0  0  0  0  0  0  0
   -9.9618    4.7598   26.1630 C   0  0  0  0  0  0  0  0  0  0  0  0
   -9.4200    2.4524   26.2849 C   0  0  0  0  0  0  0  0  0  0  0  0
  -10.2590    3.4815   25.9250 C   0  0  0  0  0  0  0  0  0  0  0  0
   -8.3837    6.4702   27.0872 C   0  0  0  0  0  0  0  0  0  0  0  0
   -7.9910    7.5367   27.0318 N   0  0  0  0  0  0  0  0  0  0  0  0
   -7.1997    1.8927   27.2991 F   0  0  0  0  0  0  0  0  0  0  0  0
   -9.7162    0.7746   26.0027 Cl  0  0  0  0  0  0  0  0  0  0  0  0
  -11.5332    3.1509   25.2065 C   0  0  2  0  0  0  0  0  0  0  0  0
  -12.6532    3.0686   25.8174 C   0  0  0  0  0  0  0  0  0  0  0  0
  -12.7787    3.1286   27.1357 C   0  0  0  0  0  0  0  0  0  0  0  0
  -14.0131    3.1796   27.8961 C   0  0  0  0  0  0  0  0  0  0  0  0
  -13.9889    3.2499   29.3273 C   0  0  0  0  0  0  0  0  0  0  0  0
  -12.7328    3.3012   29.9840 C   0  0  0  0  0  0  0  0  0  0  0  0
  -11.5482    3.3353   29.2377 C   0  0  0  0  0  0  0  0  0  0  0  0
  -11.5948    3.2869   27.9301 C   0  0  0  0  0  0  0  0  0  0  0  0
  -11.4167    2.6004   23.8904 C   0  0  0  0  0  0  0  0  0  0  0  0
  -10.6285    1.8871   23.4257 C   0  0  0  0  0  0  0  0  0  0  0  0
  -10.3735    1.5733   22.0854 C   0  0  0  0  0  0  0  0  0  0  0  0
  -11.0349    2.2779   21.1185 C   0  0  0  0  0  0  0  0  0  0  0  0
  -11.9725    3.5056   22.9276 C   0  0  0  0  0  0  0  0  0  0  0  0
  -11.8565    3.3114   21.5750 C   0  0  0  0  0  0  0  0  0  0  0  0
  -13.7543    3.2236   25.1341 O   0  0  0  0  0  0  0  0  0  0  0  0
  3  7  1  0
  7  8  3  0
  2  9  1  0
  5 10  1  0
  6 11  1  0
 11 12  1  1
 12 13  1  0
 11 19  1  0
 12 25  2  0
 13 14  2  0
 14 15  1  0
 15 16  2  0
 16 17  1  0
 17 18  2  0
 18 13  1  0
  1  2  2  0
  2  5  1  0
  5  6  2  0
  6  4  1  0
  4  3  2  0
  3  1  1  0
 19 20  2  0
 20 21  1  0
 21 22  2  0
 22 24  1  0
 24 23  2  0
 23 19  1  0
M  END
$$$$
