No_8177-complexes_sdf/6BKW-FPZ/2024-09-17-14-21-01/
     RDKit          3D

 26 29  0  0  0  0  0  0  0  0999 V2000
   -7.7129    4.2099   27.0854 C   0  0  0  0  0  0  0  0  0  0  0  0
   -7.7814    5.1722   27.8972 C   0  0  0  0  0  0  0  0  0  0  0  0
   -8.8776    3.8408   26.3416 C   0  0  0  0  0  0  0  0  0  0  0  0
   -8.9136    2.6330   25.5655 C   0  0  0  0  0  0  0  0  0  0  0  0
   -8.8361    6.1389   27.9032 C   0  0  0  0  0  0  0  0  0  0  0  0
   -9.9718    4.7048   26.3433 C   0  0  0  0  0  0  0  0  0  0  0  0
   -9.9205    5.8499   27.1013 C   0  0  0  0  0  0  0  0  0  0  0  0
   -9.7172    1.7020   26.0925 C   0  0  0  0  0  0  0  0  0  0  0  0
   -9.4433    0.4548   25.8087 C   0  0  0  0  0  0  0  0  0  0  0  0
  -10.1625   -0.5908   26.5101 C   0  0  0  0  0  0  0  0  0  0  0  0
  -11.1745   -0.2215   27.4253 C   0  0  0  0  0  0  0  0  0  0  0  0
  -11.3688    1.0989   27.7321 C   0  0  0  0  0  0  0  0  0  0  0  0
  -10.6090    2.0845   27.1836 C   0  0  0  0  0  0  0  0  0  0  0  0
  -12.3453    1.3863   28.8790 C   0  0  0  0  0  0  0  0  0  0  0  0
  -12.4404    2.7042   29.2049 N   0  0  0  0  0  0  0  0  0  0  0  0
  -13.3517    3.1254   30.1923 C   0  0  0  0  0  0  0  0  0  0  0  0
  -13.3630    2.7059   31.3173 C   0  0  0  0  0  0  0  0  0  0  0  0
  -13.0205    0.5453   29.3521 O   0  0  0  0  0  0  0  0  0  0  0  0
  -14.1307    3.3337   32.3522 C   0  0  0  0  0  0  0  0  0  0  0  0
  -14.5702    4.2654   32.2011 C   0  0  0  0  0  0  0  0  0  0  0  0
  -14.6455    5.0297   30.9210 C   0  0  0  0  0  0  0  0  0  0  0  0
  -13.9230    4.4494   29.9108 C   0  0  0  0  0  0  0  0  0  0  0  0
  -13.8896    5.0395   28.5884 C   0  0  0  0  0  0  0  0  0  0  0  0
  -14.9327    5.7441   28.1210 C   0  0  0  0  0  0  0  0  0  0  0  0
  -15.9668    6.0722   28.9783 C   0  0  0  0  0  0  0  0  0  0  0  0
  -15.8273    5.7900   30.4231 C   0  0  0  0  0  0  0  0  0  0  0  0
  3  4  1  0
  4  8  1  0
 12 14  1  0
 14 15  1  0
 15 16  1  0
 14 18  2  0
 16 17  2  0
 17 19  1  0
 19 20  2  0
 20 21  1  0
 22 16  1  0
  8  9  2  0
  9 10  1  0
 10 11  2  0
 11 12  1  0
 12 13  2  0
 13  8  1  0
  1  2  2  0
  2  5  1  0
  5  7  2  0
  7  6  1  0
  6  3  2  0
  3  1  1  0
 21 22  2  0
 22 23  1  0
 23 24  2  0
 24 25  1  0
 25 26  2  0
 26 21  1  0
M  END
$$$$
