No_8829-complexes_sdf/6BKW-FPZ/2024-09-17-14-21-01/
     RDKit          3D

 23 24  0  0  0  0  0  0  0  0999 V2000
   -7.2496    3.8871   27.4508 C   0  0  0  0  0  0  0  0  0  0  0  0
   -7.9379    4.9063   27.8518 C   0  0  0  0  0  0  0  0  0  0  0  0
   -7.5112    6.1898   27.6280 C   0  0  0  0  0  0  0  0  0  0  0  0
   -7.4783    2.5435   27.5904 C   0  0  2  0  0  0  0  0  0  0  0  0
   -6.6064    1.5370   27.1750 C   0  0  0  0  0  0  0  0  0  0  0  0
   -7.1002    0.3229   27.0179 C   0  0  0  0  0  0  0  0  0  0  0  0
   -8.4578    0.1338   27.2073 C   0  0  0  0  0  0  0  0  0  0  0  0
   -8.7952    1.9435   27.4675 C   0  0  2  0  0  0  0  0  0  0  0  0
   -9.9636    2.3598   27.1672 C   0  0  0  0  0  0  0  0  0  0  0  0
  -10.2906    3.6347   27.0196 C   0  0  0  0  0  0  0  0  0  0  0  0
  -11.6318    4.0827   27.1245 C   0  0  0  0  0  0  0  0  0  0  0  0
  -12.4525    3.5253   27.6969 C   0  0  0  0  0  0  0  0  0  0  0  0
  -11.0768    1.5798   27.6763 C   0  0  0  0  0  0  0  0  0  0  0  0
  -12.3372    2.0905   27.9207 C   0  0  0  0  0  0  0  0  0  0  0  0
  -13.4135    1.2276   28.4314 C   0  0  0  0  0  0  0  0  0  0  0  0
  -13.8383    1.5023   29.6102 C   0  0  0  0  0  0  0  0  0  0  0  0
  -13.7371    2.6850   30.1947 C   0  0  0  0  0  0  0  0  0  0  0  0
  -14.2175    2.9344   31.5591 C   0  0  0  0  0  0  0  0  0  0  0  0
  -13.9100    4.1998   32.2487 C   0  0  0  0  0  0  0  0  0  0  0  0
  -14.1581    4.3442   33.5861 C   0  0  0  0  0  0  0  0  0  0  0  0
  -14.5722    3.2240   34.3455 C   0  0  0  0  0  0  0  0  0  0  0  0
  -14.7491    2.0268   33.6894 C   0  0  0  0  0  0  0  0  0  0  0  0
  -14.4950    1.8537   32.3889 C   0  0  0  0  0  0  0  0  0  0  0  0
  1  2  1  0
  2  3  2  0
  4  1  1  6
  4  5  1  0
  5  6  2  0
  6  7  1  0
  4  8  1  0
  7  8  1  0
  8  9  1  6
 14 15  1  0
 15 16  1  0
 16 17  2  3
 17 18  1  0
 18 19  2  3
 19 20  1  0
 20 21  2  3
 21 22  1  0
 22 23  2  0
  9 10  2  0
 10 11  1  0
 11 12  2  0
 12 14  1  0
 14 13  2  0
 13  9  1  0
M  END
$$$$
