No_8833-complexes_sdf/6BKW-FPZ/2024-09-17-14-21-01/
     RDKit          3D

 27 28  0  0  0  0  0  0  0  0999 V2000
   -7.9040    3.9820   27.1177 C   0  0  0  0  0  0  0  0  0  0  0  0
   -8.2057    2.8231   26.8733 C   0  0  0  0  0  0  0  0  0  0  0  0
   -8.7463    4.9537   27.6708 C   0  0  0  0  0  0  0  0  0  0  0  0
  -10.0901    4.5164   28.0293 C   0  0  0  0  0  0  0  0  0  0  0  0
   -9.5729    2.3483   27.2382 C   0  0  0  0  0  0  0  0  0  0  0  0
  -10.4170    3.2421   27.8238 C   0  0  0  0  0  0  0  0  0  0  0  0
   -8.2984    6.3439   27.8789 C   0  0  0  0  0  0  0  0  0  0  0  0
   -9.8553    0.9095   27.0177 C   0  0  0  0  0  0  0  0  0  0  0  0
  -10.6479    0.6185   25.9676 C   0  0  0  0  0  0  0  0  0  0  0  0
  -11.1923    1.3428   25.1763 C   0  0  0  0  0  0  0  0  0  0  0  0
  -11.8876    0.9258   23.9424 C   0  0  0  0  0  0  0  0  0  0  0  0
  -11.9151   -0.4112   23.7133 C   0  0  0  0  0  0  0  0  0  0  0  0
  -10.7731   -0.8609   25.6057 C   0  0  0  0  0  0  0  0  0  0  0  0
  -11.4049   -1.2867   24.5492 C   0  0  0  0  0  0  0  0  0  0  0  0
   -9.3963    0.0978   27.9892 O   0  0  0  0  0  0  0  0  0  0  0  0
   -8.9273    7.2263   26.8122 C   0  0  0  0  0  0  0  0  0  0  0  0
  -11.7724    2.8242   28.2726 C   0  0  0  0  0  0  0  0  0  0  0  0
  -11.8064    2.2832   29.4051 F   0  0  0  0  0  0  0  0  0  0  0  0
  -12.5310    4.0386   28.4416 F   0  0  0  0  0  0  0  0  0  0  0  0
  -12.4872    2.1428   27.3678 F   0  0  0  0  0  0  0  0  0  0  0  0
  -11.5135   -2.9490   24.1968 Cl  0  0  0  0  0  0  0  0  0  0  0  0
   -9.7108    6.9333   26.0914 O   0  0  0  0  0  0  0  0  0  0  0  0
   -8.1544    8.3206   26.6824 O   0  0  0  0  0  0  0  0  0  0  0  0
   -7.3338    1.9401   26.4008 O   0  0  0  0  0  0  0  0  0  0  0  0
  -12.5118    1.9272   23.0657 C   0  0  0  0  0  0  0  0  0  0  0  0
  -12.2331    3.1927   23.1204 C   0  0  0  0  0  0  0  0  0  0  0  0
  -12.9190    4.1368   22.2957 C   0  0  0  0  0  0  0  0  0  0  0  0
  3  7  1  0
  5  8  1  0
  8  9  1  0
  8 15  2  0
  7 16  1  0
  6 17  1  0
 17 18  1  0
 17 19  1  0
 17 20  1  0
 14 21  1  0
 16 22  1  0
 16 23  2  0
  2 24  1  0
 11 25  1  0
 25 26  2  3
 26 27  1  0
  1  2  2  0
  2  5  1  0
  5  6  2  0
  6  4  1  0
  4  3  2  0
  3  1  1  0
  9 10  2  0
 10 11  1  0
 11 12  2  0
 12 14  1  0
 14 13  2  0
 13  9  1  0
M  END
$$$$
