No_8179-complexes_sdf/6BKW-FPZ/2024-09-17-14-21-01/
     RDKit          3D

 16 17  0  0  0  0  0  0  0  0999 V2000
   -7.2496    3.8871   27.4508 C   0  0  0  0  0  0  0  0  0  0  0  0
   -7.6161    2.7143   27.1523 C   0  0  0  0  0  0  0  0  0  0  0  0
   -7.1618    1.8631   27.5232 C   0  0  0  0  0  0  0  0  0  0  0  0
   -8.0036    5.1085   27.2100 C   0  0  0  0  0  0  0  0  0  0  0  0
   -9.0765    5.1561   26.4023 C   0  0  0  0  0  0  0  0  0  0  0  0
   -9.5423    3.9741   25.8512 C   0  0  0  0  0  0  0  0  0  0  0  0
   -8.8464    2.7352   26.2620 C   0  0  0  0  0  0  0  0  0  0  0  0
   -7.5745    0.4314   27.2995 C   0  0  0  0  0  0  0  0  0  0  0  0
   -6.8079   -0.6627   27.7034 C   0  0  0  0  0  0  0  0  0  0  0  0
   -5.5769   -0.3932   28.3023 C   0  0  0  0  0  0  0  0  0  0  0  0
   -5.0305    0.8695   28.4220 C   0  0  0  0  0  0  0  0  0  0  0  0
   -5.7083    1.8958   28.0593 C   0  0  0  0  0  0  0  0  0  0  0  0
   -7.5143    6.3314   27.8181 N   0  0  0  0  0  0  0  0  0  0  0  0
   -4.8123   -1.6171   28.8064 C   0  0  0  0  0  0  0  0  0  0  0  0
   -4.1943   -2.2803   28.0512 C   0  0  0  0  0  0  0  0  0  0  0  0
   -3.3696   -3.4085   28.5029 C   0  0  0  0  0  0  0  0  0  0  0  0
  4 13  1  0
 10 14  1  0
 14 15  2  3
 15 16  1  0
  3  2  1  0
  3  8  2  0
  8  9  1  0
  9 10  2  0
 10 11  1  0
 11 12  2  0
 12  3  1  0
  1  2  2  0
  2  7  1  0
  7  6  2  0
  6  5  1  0
  5  4  2  0
  4  1  1  0
M  END
$$$$
