No_8774-complexes_sdf/6BKW-FPZ/2024-09-17-14-21-01/
     RDKit          3D

 40 45  0  0  0  0  0  0  0  0999 V2000
   -7.7129    4.2099   27.0854 C   0  0  0  0  0  0  0  0  0  0  0  0
   -8.9133    4.4736   27.0998 C   0  0  0  0  0  0  0  0  0  0  0  0
   -9.4616    5.6470   27.6290 C   0  0  0  0  0  0  0  0  0  0  0  0
   -6.8722    5.1130   27.9248 C   0  0  0  0  0  0  0  0  0  0  0  0
   -7.3801    6.2535   28.4126 C   0  0  0  0  0  0  0  0  0  0  0  0
   -8.6734    6.5530   28.2150 C   0  0  0  0  0  0  0  0  0  0  0  0
   -9.8157    3.4887   26.3527 C   0  0  0  0  0  0  0  0  0  0  0  0
  -10.8124    3.4526   26.2614 C   0  0  0  0  0  0  0  0  0  0  0  0
  -11.6526    2.4946   25.4117 C   0  0  0  0  0  0  0  0  0  0  0  0
  -10.9084    1.5799   24.7250 C   0  0  0  0  0  0  0  0  0  0  0  0
   -9.5379    1.6099   24.7738 C   0  0  0  0  0  0  0  0  0  0  0  0
   -8.8804    2.5322   25.5684 C   0  0  0  0  0  0  0  0  0  0  0  0
   -8.9654    0.5024   24.0229 C   0  0  0  0  0  0  0  0  0  0  0  0
   -8.9715    0.4407   22.7751 N   0  0  0  0  0  0  0  0  0  0  0  0
   -9.4894    1.3933   22.0420 C   0  0  0  0  0  0  0  0  0  0  0  0
   -8.4447   -0.6832   22.0558 C   0  0  0  0  0  0  0  0  0  0  0  0
   -8.0073   -0.1640   24.6878 O   0  0  0  0  0  0  0  0  0  0  0  0
   -9.1164   -1.8549   22.1030 C   0  0  0  0  0  0  0  0  0  0  0  0
  -10.1273   -2.1041   22.0095 C   0  0  0  0  0  0  0  0  0  0  0  0
  -11.1237   -1.0051   21.7261 C   0  0  0  0  0  0  0  0  0  0  0  0
  -12.5282   -1.2474   21.5740 C   0  0  0  0  0  0  0  0  0  0  0  0
  -12.8615   -2.5391   21.6741 C   0  0  0  0  0  0  0  0  0  0  0  0
  -12.0411   -3.5954   21.8906 C   0  0  0  0  0  0  0  0  0  0  0  0
  -10.7451   -3.3795   22.0442 C   0  0  0  0  0  0  0  0  0  0  0  0
   -8.0685   -3.0090   22.1599 C   0  0  0  0  0  0  0  0  0  0  0  0
   -7.2002   -3.0490   22.7783 C   0  0  0  0  0  0  0  0  0  0  0  0
   -6.1600   -4.1768   22.8027 C   0  0  0  0  0  0  0  0  0  0  0  0
   -6.5376   -5.2532   22.0705 C   0  0  0  0  0  0  0  0  0  0  0  0
   -8.4391   -4.1925   21.4184 C   0  0  0  0  0  0  0  0  0  0  0  0
   -7.5769   -5.2400   21.3672 C   0  0  0  0  0  0  0  0  0  0  0  0
   -9.8417   -4.3949   21.2866 N   0  0  0  0  0  0  0  0  0  0  0  0
  -10.3525   -5.4785   20.7013 C   0  0  0  0  0  0  0  0  0  0  0  0
  -10.8293   -6.4812   21.4305 C   0  0  0  0  0  0  0  0  0  0  0  0
  -10.4007   -5.4637   19.3242 C   0  0  0  0  0  0  0  0  0  0  0  0
  -11.3495   -7.5970   20.8361 C   0  0  0  0  0  0  0  0  0  0  0  0
  -10.9562   -6.5650   18.6736 C   0  0  0  0  0  0  0  0  0  0  0  0
  -11.4334   -7.6101   19.4192 C   0  0  0  0  0  0  0  0  0  0  0  0
   -9.9714   -4.2008   18.6761 C   0  0  0  0  0  0  0  0  0  0  0  0
  -10.0559   -3.5963   17.7987 C   0  0  0  0  0  0  0  0  0  0  0  0
   -9.4110   -2.3954   17.4404 C   0  0  0  0  0  0  0  0  0  0  0  0
  2  7  1  0
 11 13  1  0
 13 14  1  0
 14 15  1  0
 14 16  1  0
 13 17  2  0
 16 18  1  0
 18 25  1  0
 24 31  1  0
 29 31  1  0
 31 32  1  0
 34 38  1  0
 38 39  1  0
 39 40  2  0
 19 18  1  0
  1  2  2  0
  2  3  1  0
  3  6  2  0
  6  5  1  0
  5  4  2  0
  4  1  1  0
 25 26  2  0
 26 27  1  0
 27 28  2  0
 28 30  1  0
 30 29  2  0
 29 25  1  0
 19 20  2  0
 20 21  1  0
 21 22  2  0
 22 23  1  0
 23 24  2  0
 24 19  1  0
  7  8  2  0
  8  9  1  0
  9 10  2  0
 10 11  1  0
 11 12  2  0
 12  7  1  0
 32 33  2  0
 33 35  1  0
 35 37  2  0
 37 36  1  0
 36 34  2  0
 34 32  1  0
M  END
$$$$
