No_8894-complexes_sdf/6BKW-FPZ/2024-09-17-14-21-01/
     RDKit          3D

 19 20  0  0  0  0  0  0  0  0999 V2000
   -7.7129    4.2099   27.0854 C   0  0  0  0  0  0  0  0  0  0  0  0
   -7.7814    5.1722   27.8972 C   0  0  0  0  0  0  0  0  0  0  0  0
   -8.8776    3.8408   26.3416 C   0  0  0  0  0  0  0  0  0  0  0  0
   -9.9844    4.6492   26.4743 C   0  0  0  0  0  0  0  0  0  0  0  0
   -8.7830    6.1594   27.8870 C   0  0  0  0  0  0  0  0  0  0  0  0
   -9.9269    5.8191   27.1183 C   0  0  0  0  0  0  0  0  0  0  0  0
   -8.8833    2.5999   25.5655 C   0  0  0  0  0  0  0  0  0  0  0  0
   -9.6888    1.6516   26.0441 C   0  0  2  0  0  0  0  0  0  0  0  0
   -9.3858    0.4255   25.7744 C   0  0  0  0  0  0  0  0  0  0  0  0
   -8.4781    0.0273   25.0795 C   0  0  0  0  0  0  0  0  0  0  0  0
   -8.1196   -1.3239   24.8302 C   0  0  0  0  0  0  0  0  0  0  0  0
   -8.8807   -2.2834   25.3565 C   0  0  0  0  0  0  0  0  0  0  0  0
  -10.1384   -0.7274   26.3887 C   0  0  0  0  0  0  0  0  0  0  0  0
   -9.8800   -2.0028   26.2029 C   0  0  0  0  0  0  0  0  0  0  0  0
  -10.9186    1.9635   26.7731 C   0  0  0  0  0  0  0  0  0  0  0  0
  -12.0449    1.9860   26.4292 C   0  0  0  0  0  0  0  0  0  0  0  0
  -13.1383    2.2401   27.2993 C   0  0  0  0  0  0  0  0  0  0  0  0
  -12.8299    2.5412   28.6636 C   0  0  0  0  0  0  0  0  0  0  0  0
  -11.5190    2.6715   29.1017 C   0  0  0  0  0  0  0  0  0  0  0  0
  3  7  1  0
  8  7  1  6
  8  9  1  0
  8 15  1  0
 15 16  2  3
 16 17  1  0
 17 18  2  3
 18 19  1  0
  1  2  2  0
  2  5  1  0
  5  6  2  0
  6  4  1  0
  4  3  2  0
  3  1  1  0
  9 10  2  0
 10 11  1  0
 11 12  2  0
 12 14  1  0
 14 13  2  0
 13  9  1  0
M  END
$$$$
