No_8596-complexes_sdf/6BKW-FPZ/2024-09-17-14-21-01/
     RDKit          3D

 11 11  0  0  0  0  0  0  0  0999 V2000
   -7.2496    3.8871   27.4508 C   0  0  0  0  0  0  0  0  0  0  0  0
   -8.5096    4.0291   27.2770 C   0  0  1  0  0  0  0  0  0  0  0  0
   -9.2677    5.1714   27.5773 C   0  0  0  0  0  0  0  0  0  0  0  0
   -9.1323    3.0875   26.2773 C   0  0  0  0  0  0  0  0  0  0  0  0
   -9.9812    3.4769   25.4352 C   0  0  0  0  0  0  0  0  0  0  0  0
  -11.0486    2.6937   25.0886 C   0  0  0  0  0  0  0  0  0  0  0  0
  -10.9002    1.3504   25.2161 C   0  0  0  0  0  0  0  0  0  0  0  0
   -9.9410    0.8220   26.1481 C   0  0  0  0  0  0  0  0  0  0  0  0
   -9.0851    1.7044   26.8091 C   0  0  0  0  0  0  0  0  0  0  0  0
   -6.6002    2.7994   27.3167 O   0  0  0  0  0  0  0  0  0  0  0  0
   -6.4807    4.7487   28.1378 F   0  0  0  0  0  0  0  0  0  0  0  0
  1  2  1  0
  2  3  1  6
  2  4  1  0
  1 10  2  0
  1 11  1  0
  4  5  2  0
  5  6  1  0
  6  7  2  0
  7  8  1  0
  8  9  2  0
  9  4  1  0
M  END
$$$$
