No_8971-complexes_sdf/6BKW-FPZ/2024-09-17-14-21-01/
     RDKit          3D

 25 28  0  0  0  0  0  0  0  0999 V2000
   -7.9040    3.9820   27.1177 C   0  0  0  0  0  0  0  0  0  0  0  0
   -7.8663    4.8694   27.9238 C   0  0  0  0  0  0  0  0  0  0  0  0
   -9.0501    3.8017   26.2617 C   0  0  0  0  0  0  0  0  0  0  0  0
  -10.0189    4.7608   26.3707 C   0  0  0  0  0  0  0  0  0  0  0  0
   -8.6973    5.9722   27.8968 C   0  0  0  0  0  0  0  0  0  0  0  0
   -9.8216    5.8946   27.1241 C   0  0  0  0  0  0  0  0  0  0  0  0
   -9.1437    2.6293   25.4175 C   0  0  0  0  0  0  0  0  0  0  0  0
   -8.6170    1.4258   25.8177 C   0  0  0  0  0  0  0  0  0  0  0  0
   -8.6844    0.3194   24.9788 C   0  0  0  0  0  0  0  0  0  0  0  0
   -9.3359    0.4939   23.7289 C   0  0  0  0  0  0  0  0  0  0  0  0
   -9.8521    1.7195   23.3158 C   0  0  0  0  0  0  0  0  0  0  0  0
   -9.7240    2.7821   24.1593 C   0  0  0  0  0  0  0  0  0  0  0  0
  -10.4661    1.8424   22.0042 C   0  0  0  0  0  0  0  0  0  0  0  0
  -10.7979    0.8501   21.2526 C   0  0  0  0  0  0  0  0  0  0  0  0
  -10.5462   -0.4182   21.7865 C   0  0  0  0  0  0  0  0  0  0  0  0
   -9.6640   -0.6266   22.8913 C   0  0  0  0  0  0  0  0  0  0  0  0
   -8.1078   -0.9225   25.3772 C   0  0  0  0  0  0  0  0  0  0  0  0
   -8.2024   -2.1720   25.4541 Cl  0  0  0  0  0  0  0  0  0  0  0  0
  -10.7111   -1.5967   20.8455 C   0  0  0  0  0  0  0  0  0  0  0  0
   -9.9694   -2.5193   20.7895 C   0  0  0  0  0  0  0  0  0  0  0  0
  -10.2219   -3.7287   19.9837 C   0  0  0  0  0  0  0  0  0  0  0  0
   -9.3846   -4.8177   19.9525 C   0  0  0  0  0  0  0  0  0  0  0  0
   -8.1715   -4.7309   20.6524 C   0  0  0  0  0  0  0  0  0  0  0  0
   -7.7904   -3.6495   21.3594 C   0  0  0  0  0  0  0  0  0  0  0  0
   -8.5738   -2.6088   21.4522 C   0  0  0  0  0  0  0  0  0  0  0  0
  3  7  1  0
  9 17  1  0
 17 18  1  0
 15 19  1  0
 19 20  1  0
 20 21  2  0
 21 22  1  0
 22 23  2  0
 23 24  1  0
 24 25  2  0
 25 20  1  0
 11 13  1  0
 13 14  2  0
 14 15  1  0
 15 16  2  0
 16 10  1  0
  1  2  2  0
  2  5  1  0
  5  6  2  0
  6  4  1  0
  4  3  2  0
  3  1  1  0
  7  8  2  0
  8  9  1  0
  9 10  2  0
 10 11  1  0
 11 12  2  0
 12  7  1  0
M  END
$$$$
