No_8709-complexes_sdf/6BKW-FPZ/2024-09-17-14-21-01/
     RDKit          3D

 22 25  0  0  0  0  0  0  0  0999 V2000
   -7.9040    3.9820   27.1177 C   0  0  0  0  0  0  0  0  0  0  0  0
   -7.8663    4.8694   27.9238 C   0  0  0  0  0  0  0  0  0  0  0  0
   -9.0491    3.8523   26.2542 C   0  0  0  0  0  0  0  0  0  0  0  0
   -8.7661    5.9491   27.9690 C   0  0  0  0  0  0  0  0  0  0  0  0
   -9.9295    4.8502   26.2323 C   0  0  0  0  0  0  0  0  0  0  0  0
   -9.8077    5.9288   27.0933 C   0  0  0  0  0  0  0  0  0  0  0  0
   -9.0726    2.7074   25.3087 C   0  0  1  0  0  0  0  0  0  0  0  0
   -8.5824    1.5503   25.7138 N   0  0  0  0  0  0  0  0  0  0  0  0
   -8.0005    1.3657   26.8322 C   0  0  0  0  0  0  0  0  0  0  0  0
   -7.3437    2.5540   27.4783 C   0  0  0  0  0  0  0  0  0  0  0  0
   -8.7319    0.4248   24.8722 C   0  0  0  0  0  0  0  0  0  0  0  0
   -9.3545    0.6430   23.6730 C   0  0  0  0  0  0  0  0  0  0  0  0
   -9.8289    2.6749   24.1510 C   0  0  0  0  0  0  0  0  0  0  0  0
   -9.9332    1.7812   23.3113 C   0  0  0  0  0  0  0  0  0  0  0  0
   -7.7174    0.2769   27.4258 O   0  0  0  0  0  0  0  0  0  0  0  0
  -10.6076    1.9326   22.0356 C   0  0  0  0  0  0  0  0  0  0  0  0
  -11.0352    0.8864   21.2830 C   0  0  0  0  0  0  0  0  0  0  0  0
  -11.6161    1.0551   20.0314 C   0  0  0  0  0  0  0  0  0  0  0  0
  -11.7520    2.3328   19.5003 C   0  0  0  0  0  0  0  0  0  0  0  0
  -10.7260    3.2828   21.4198 C   0  0  0  0  0  0  0  0  0  0  0  0
  -11.3226    3.4688   20.2431 C   0  0  0  0  0  0  0  0  0  0  0  0
  -12.0178    0.0772   19.2793 F   0  0  0  0  0  0  0  0  0  0  0  0
  3  7  1  0
  7  8  1  0
  8  9  1  0
  1 10  1  0
  9 10  1  0
  8 11  1  0
  7 13  1  1
 12 14  1  0
 13 14  1  0
  9 15  2  0
 14 16  1  0
 18 22  1  0
 12 11  1  0
  1  2  2  0
  2  4  1  0
  4  6  2  0
  6  5  1  0
  5  3  2  0
  3  1  1  0
 16 17  2  0
 17 18  1  0
 18 19  2  0
 19 21  1  0
 21 20  2  0
 20 16  1  0
M  END
$$$$
