No_8109-complexes_sdf/6BKW-FPZ/2024-09-17-14-21-01/
     RDKit          3D

 20 21  0  0  0  0  0  0  0  0999 V2000
   -7.9040    3.9820   27.1177 C   0  0  0  0  0  0  0  0  0  0  0  0
   -9.0711    4.3164   27.0630 C   0  0  0  0  0  0  0  0  0  0  0  0
   -9.9692    3.7224   26.1073 C   0  0  0  0  0  0  0  0  0  0  0  0
   -6.9787    4.6761   28.1003 C   0  0  0  0  0  0  0  0  0  0  0  0
   -9.4538    2.6801   25.3673 C   0  0  0  0  0  0  0  0  0  0  0  0
  -10.3254    2.0814   24.4116 C   0  0  0  0  0  0  0  0  0  0  0  0
   -7.5683    5.7174   28.8044 C   0  0  0  0  0  0  0  0  0  0  0  0
  -11.4938    2.7526   24.0573 C   0  0  0  0  0  0  0  0  0  0  0  0
  -11.9291    3.8490   24.7296 C   0  0  0  0  0  0  0  0  0  0  0  0
  -11.1749    4.4167   25.7502 C   0  0  0  0  0  0  0  0  0  0  0  0
   -9.3728    5.4564   27.8854 C   0  0  0  0  0  0  0  0  0  0  0  0
   -8.6677    6.1349   28.6453 N   0  0  0  0  0  0  0  0  0  0  0  0
   -9.8696    0.8920   23.6536 C   0  0  2  0  0  0  0  0  0  0  0  0
  -10.6648    0.4513   23.1730 Br  0  0  0  0  0  0  0  0  0  0  0  0
   -9.0381    0.0102   24.5425 C   0  0  0  0  0  0  0  0  0  0  0  0
   -8.7575    1.6405   22.6976 C   0  0  0  0  0  0  0  0  0  0  0  0
   -9.1932    0.0114   25.8333 C   0  0  0  0  0  0  0  0  0  0  0  0
   -8.4014   -0.9273   26.6357 C   0  0  0  0  0  0  0  0  0  0  0  0
   -8.6844   -0.9080   28.0334 C   0  0  0  0  0  0  0  0  0  0  0  0
   -9.8185   -0.1509   28.5172 C   0  0  0  0  0  0  0  0  0  0  0  0
  2  3  1  0
  6 13  1  0
 13 14  1  0
 13 15  1  0
 13 16  1  6
 15 17  2  3
 17 18  1  0
 18 19  2  3
 19 20  1  0
  1  2  2  0
  2 11  1  0
 11 12  2  0
 12  7  1  0
  7  4  2  0
  4  1  1  0
  3  5  2  0
  5  6  1  0
  6  8  2  0
  8  9  1  0
  9 10  2  0
 10  3  1  0
M  END
$$$$
