No_887-complexes_sdf/6BKW-FPZ/2024-09-17-14-21-01/
     RDKit          3D

 30 33  0  0  0  0  0  0  0  0999 V2000
   -7.2496    3.8871   27.4508 C   0  0  0  0  0  0  0  0  0  0  0  0
   -7.9379    4.9063   27.8518 C   0  0  0  0  0  0  0  0  0  0  0  0
   -7.5112    6.1898   27.6280 C   0  0  0  0  0  0  0  0  0  0  0  0
   -9.3085    4.6933   28.2930 C   0  0  0  0  0  0  0  0  0  0  0  0
   -7.7804    2.5137   27.6845 C   0  0  0  0  0  0  0  0  0  0  0  0
   -7.0499    1.4112   27.1570 C   0  0  0  0  0  0  0  0  0  0  0  0
   -7.7147    0.4723   26.3729 C   0  0  2  0  0  0  0  0  0  0  0  0
   -8.9241    0.1595   26.8148 C   0  0  0  0  0  0  0  0  0  0  0  0
   -9.8209    1.2968   27.1196 C   0  0  2  0  0  0  0  0  0  0  0  0
   -9.1726    2.3894   27.8914 C   0  0  0  0  0  0  0  0  0  0  0  0
   -9.9595    3.4864   28.1531 C   0  0  0  0  0  0  0  0  0  0  0  0
  -11.2218    1.0126   27.4160 C   0  0  0  0  0  0  0  0  0  0  0  0
  -11.8099    0.4537   26.7525 C   0  0  0  0  0  0  0  0  0  0  0  0
  -13.2790    0.2207   26.9286 C   0  0  0  0  0  0  0  0  0  0  0  0
  -13.7814    0.5853   27.7320 C   0  0  0  0  0  0  0  0  0  0  0  0
  -13.1995    1.4246   28.8086 C   0  0  0  0  0  0  0  0  0  0  0  0
  -11.8414    1.6920   28.6500 C   0  0  0  0  0  0  0  0  0  0  0  0
   -8.2639    7.3291   26.9816 C   0  0  0  0  0  0  0  0  0  0  0  0
   -6.8206   -0.7702   26.1823 C   0  0  0  0  0  0  0  0  0  0  0  0
   -6.2815   -1.2856   27.0799 N   0  0  0  0  0  0  0  0  0  0  0  0
   -5.5950   -1.9483   27.5484 C   0  0  2  0  0  0  0  0  0  0  0  0
   -4.8865   -2.3285   28.2081 C   0  0  0  0  0  0  0  0  0  0  0  0
   -4.1183   -2.4279   29.1170 N   0  0  0  0  0  0  0  0  0  0  0  0
   -3.3274   -3.5346   29.2792 C   0  0  0  0  0  0  0  0  0  0  0  0
   -6.6473   -1.3300   24.8759 C   0  0  0  0  0  0  0  0  0  0  0  0
   -5.5768   -2.2427   24.8075 C   0  0  0  0  0  0  0  0  0  0  0  0
   -5.0625   -2.6944   26.1883 C   0  0  0  0  0  0  0  0  0  0  0  0
   -6.8818   -0.6679   28.5004 C   0  0  0  0  0  0  0  0  0  0  0  0
   -2.3680   -3.7462   29.6416 C   0  0  0  0  0  0  0  0  0  0  0  0
   -4.1431   -4.8038   28.9250 C   0  0  0  0  0  0  0  0  0  0  0  0
  2  3  1  0
  5  6  1  0
  6  7  1  0
  7  8  1  0
  8  9  1  0
  9 10  1  0
  9 12  1  1
  3 18  1  0
  7 19  1  1
 19 20  1  0
 20 21  1  0
 22 23  1  0
 23 24  1  0
 19 25  1  0
 21 27  1  0
 26 27  1  0
 20 28  1  0
 24 29  2  0
 24 30  1  0
 21 22  1  6
 25 26  1  0
 12 13  2  0
 13 14  1  0
 14 15  2  0
 15 16  1  0
 16 17  2  0
 17 12  1  0
  1  2  2  0
  2  4  1  0
  4 11  2  0
 11 10  1  0
 10  5  2  0
  5  1  1  0
M  END
$$$$
