No_8030-complexes_sdf/6BKW-FPZ/2024-09-17-14-21-01/
     RDKit          3D

 33 38  0  0  0  0  0  0  0  0999 V2000
   -7.9040    3.9820   27.1177 C   0  0  0  0  0  0  0  0  0  0  0  0
   -7.8663    4.8694   27.9238 C   0  0  0  0  0  0  0  0  0  0  0  0
   -9.0491    3.8523   26.2542 C   0  0  0  0  0  0  0  0  0  0  0  0
   -8.7661    5.9491   27.9690 C   0  0  0  0  0  0  0  0  0  0  0  0
   -9.9295    4.8502   26.2323 C   0  0  0  0  0  0  0  0  0  0  0  0
   -9.8077    5.9288   27.0933 C   0  0  0  0  0  0  0  0  0  0  0  0
   -6.8765    2.8741   27.3811 C   0  0  0  0  0  0  0  0  0  0  0  0
   -7.1092    1.6462   26.8918 N   0  0  0  0  0  0  0  0  0  0  0  0
   -8.2480    1.2734   26.4047 C   0  0  0  0  0  0  0  0  0  0  0  0
   -9.1745    2.3398   25.9023 C   0  0  0  0  0  0  0  0  0  0  0  0
   -6.1916    0.6032   27.3166 C   0  0  0  0  0  0  0  0  0  0  0  0
   -6.2354   -0.1478   28.2080 C   0  0  0  0  0  0  0  0  0  0  0  0
   -5.4289   -1.0520   28.6975 C   0  0  0  0  0  0  0  0  0  0  0  0
   -4.1195   -1.0637   28.0868 C   0  0  0  0  0  0  0  0  0  0  0  0
   -3.8761   -0.1793   27.0516 C   0  0  0  0  0  0  0  0  0  0  0  0
   -4.8513    0.7024   26.6876 C   0  0  0  0  0  0  0  0  0  0  0  0
  -10.2730    2.0612   25.0483 C   0  0  0  0  0  0  0  0  0  0  0  0
  -10.1925    1.1625   24.2262 C   0  0  0  0  0  0  0  0  0  0  0  0
  -11.2704    0.8133   23.2769 C   0  0  0  0  0  0  0  0  0  0  0  0
  -12.3592    1.6224   23.2954 C   0  0  0  0  0  0  0  0  0  0  0  0
  -12.4242    2.6731   24.1883 C   0  0  0  0  0  0  0  0  0  0  0  0
  -11.3796    2.9462   25.0768 C   0  0  0  0  0  0  0  0  0  0  0  0
   -5.9039    3.1861   28.0582 O   0  0  0  0  0  0  0  0  0  0  0  0
   -5.6605   -1.9629   29.8633 C   0  0  0  0  0  0  0  0  0  0  0  0
   -6.5591   -2.5131   30.1097 N   0  0  0  0  0  0  0  0  0  0  0  0
   -6.7145   -3.2498   31.3038 C   0  0  0  0  0  0  0  0  0  0  0  0
   -5.6410   -3.1392   32.1259 C   0  0  0  0  0  0  0  0  0  0  0  0
   -4.6648   -2.1372   31.0692 C   0  0  2  0  0  0  0  0  0  0  0  0
   -3.4371   -1.6546   31.4358 C   0  0  0  0  0  0  0  0  0  0  0  0
   -3.3578   -0.9058   32.4323 C   0  0  0  0  0  0  0  0  0  0  0  0
   -3.9692   -0.4319   33.2202 C   0  0  0  0  0  0  0  0  0  0  0  0
   -5.3283   -0.9945   33.1851 C   0  0  0  0  0  0  0  0  0  0  0  0
   -5.8646   -2.2040   33.0580 C   0  0  0  0  0  0  0  0  0  0  0  0
  1  7  1  0
  7  8  1  0
  8  9  1  0
  3 10  1  0
  8 11  1  0
 10 17  1  0
  7 23  2  0
 13 24  1  0
 24 25  2  0
 25 26  1  0
 26 27  2  0
 24 28  1  0
 27 28  1  0
 28 29  1  1
 29 30  1  0
 30 31  2  0
 31 32  1  0
 27 33  1  0
 32 33  2  0
 10  9  1  0
 11 12  2  0
 12 13  1  0
 13 14  2  0
 14 15  1  0
 15 16  2  0
 16 11  1  0
  1  2  2  0
  2  4  1  0
  4  6  2  0
  6  5  1  0
  5  3  2  0
  3  1  1  0
 17 18  2  0
 18 19  1  0
 19 20  2  0
 20 21  1  0
 21 22  2  0
 22 17  1  0
M  END
$$$$
