No_8499-complexes_sdf/6BKW-FPZ/2024-09-17-14-21-01/
     RDKit          3D

 17 19  0  0  0  0  0  0  0  0999 V2000
   -7.9040    3.9820   27.1177 C   0  0  0  0  0  0  0  0  0  0  0  0
   -8.2057    2.8231   26.8733 C   0  0  0  0  0  0  0  0  0  0  0  0
   -7.0130    4.3706   28.1140 C   0  0  0  0  0  0  0  0  0  0  0  0
   -9.3829    2.4374   26.1668 C   0  0  0  0  0  0  0  0  0  0  0  0
  -10.0975    3.4171   25.5988 C   0  0  0  0  0  0  0  0  0  0  0  0
   -9.7085    4.7741   25.7618 C   0  0  0  0  0  0  0  0  0  0  0  0
   -8.7070    5.1118   26.5885 C   0  0  0  0  0  0  0  0  0  0  0  0
   -8.3930    6.4627   26.8949 C   0  0  0  0  0  0  0  0  0  0  0  0
   -7.3472    6.7816   27.7386 C   0  0  0  0  0  0  0  0  0  0  0  0
   -6.7825    5.7818   28.3990 C   0  0  0  0  0  0  0  0  0  0  0  0
   -7.2989    1.4715   27.5926 Cl  0  0  0  0  0  0  0  0  0  0  0  0
  -11.1885    3.1128   24.6556 C   0  0  0  0  0  0  0  0  0  0  0  0
  -12.4278    2.8078   25.1316 C   0  0  0  0  0  0  0  0  0  0  0  0
  -10.8315    2.7368   23.3194 C   0  0  0  0  0  0  0  0  0  0  0  0
  -11.7079    2.6070   22.3361 C   0  0  0  0  0  0  0  0  0  0  0  0
  -13.4686    2.6891   24.1096 C   0  0  0  0  0  0  0  0  0  0  0  0
  -13.0959    2.4634   22.7741 C   0  0  0  0  0  0  0  0  0  0  0  0
  2 11  1  0
  5 12  1  0
  1  3  1  0
  3 10  2  0
 10  9  1  0
  9  8  2  0
  8  7  1  0
  1  2  2  0
  2  4  1  0
  4  5  2  0
  5  6  1  0
  6  7  2  0
  7  1  1  0
 12 13  2  0
 13 16  1  0
 16 17  2  0
 17 15  1  0
 15 14  2  0
 14 12  1  0
M  END
$$$$
