No_8157-complexes_sdf/6BKW-FPZ/2024-09-17-14-21-01/
     RDKit          3D

 26 29  0  0  0  0  0  0  0  0999 V2000
   -7.7129    4.2099   27.0854 C   0  0  0  0  0  0  0  0  0  0  0  0
   -7.7814    5.1722   27.8972 C   0  0  0  0  0  0  0  0  0  0  0  0
   -8.8776    3.8408   26.3416 C   0  0  0  0  0  0  0  0  0  0  0  0
   -9.9844    4.6492   26.4743 C   0  0  0  0  0  0  0  0  0  0  0  0
   -8.8033    6.1375   27.8728 C   0  0  0  0  0  0  0  0  0  0  0  0
   -9.9554    5.8280   27.1737 C   0  0  0  0  0  0  0  0  0  0  0  0
   -9.0965    2.6519   25.5788 C   0  0  0  0  0  0  0  0  0  0  0  0
   -8.4143    1.4797   26.0376 C   0  0  0  0  0  0  0  0  0  0  0  0
   -8.5116    0.2897   25.3272 C   0  0  0  0  0  0  0  0  0  0  0  0
   -9.1952    0.3420   24.1025 C   0  0  0  0  0  0  0  0  0  0  0  0
   -9.6965    2.5592   24.3937 C   0  0  0  0  0  0  0  0  0  0  0  0
   -9.7586    1.4565   23.6322 C   0  0  0  0  0  0  0  0  0  0  0  0
  -10.4649    1.4611   22.3346 C   0  0  0  0  0  0  0  0  0  0  0  0
  -11.7041    1.3694   22.3803 N   0  0  0  0  0  0  0  0  0  0  0  0
  -12.5312    1.3762   21.4757 C   0  0  0  0  0  0  0  0  0  0  0  0
  -12.1483    1.4628   20.2467 C   0  0  0  0  0  0  0  0  0  0  0  0
  -10.7021    1.6347   19.9926 C   0  0  0  0  0  0  0  0  0  0  0  0
   -9.8000    1.6758   21.0955 C   0  0  0  0  0  0  0  0  0  0  0  0
  -13.8808    1.1870   21.6512 N   0  0  0  0  0  0  0  0  0  0  0  0
  -14.3573    1.2424   22.9625 C   0  0  0  0  0  0  0  0  0  0  0  0
  -15.2970    1.6795   23.4149 C   0  0  0  0  0  0  0  0  0  0  0  0
  -16.2389    2.3892   22.7025 C   0  0  0  0  0  0  0  0  0  0  0  0
  -17.3912    2.9718   23.1540 C   0  0  0  0  0  0  0  0  0  0  0  0
  -17.6298    2.8619   24.5521 C   0  0  0  0  0  0  0  0  0  0  0  0
  -16.8095    2.2401   25.4106 C   0  0  0  0  0  0  0  0  0  0  0  0
  -15.6160    1.6702   24.9195 C   0  0  0  0  0  0  0  0  0  0  0  0
  3  7  1  0
 12 13  1  0
 15 19  1  0
 19 20  1  0
 20 21  1  0
  7  8  2  0
  8  9  1  0
  9 10  2  0
 10 12  1  0
 12 11  2  0
 11  7  1  0
 13 14  2  0
 14 15  1  0
 15 16  2  0
 16 17  1  0
 17 18  2  0
 18 13  1  0
  1  2  2  0
  2  5  1  0
  5  6  2  0
  6  4  1  0
  4  3  2  0
  3  1  1  0
 21 22  2  0
 22 23  1  0
 23 24  2  0
 24 25  1  0
 25 26  2  0
 26 21  1  0
M  END
$$$$
