No_8847-complexes_sdf/6BKW-FPZ/2024-09-17-14-21-01/
     RDKit          3D

 27 30  0  0  0  0  0  0  0  0999 V2000
   -7.2496    3.8871   27.4508 C   0  0  0  0  0  0  0  0  0  0  0  0
   -7.6161    2.7143   27.1523 C   0  0  0  0  0  0  0  0  0  0  0  0
   -8.8302    2.4659   26.5056 C   0  0  0  0  0  0  0  0  0  0  0  0
   -8.1584    5.0089   27.3234 C   0  0  0  0  0  0  0  0  0  0  0  0
   -9.3788    4.7965   26.7695 C   0  0  0  0  0  0  0  0  0  0  0  0
   -9.7028    3.5649   26.3276 C   0  0  0  0  0  0  0  0  0  0  0  0
   -6.7182    1.5519   27.3631 C   0  0  0  0  0  0  0  0  0  0  0  0
   -5.4694    1.7365   28.0694 C   0  0  0  0  0  0  0  0  0  0  0  0
   -4.6100    0.5332   28.1857 C   0  0  0  0  0  0  0  0  0  0  0  0
   -5.0703   -0.6731   27.8469 C   0  0  0  0  0  0  0  0  0  0  0  0
   -7.0114    0.2199   27.0872 C   0  0  0  0  0  0  0  0  0  0  0  0
   -6.2968   -0.8103   27.3219 C   0  0  0  0  0  0  0  0  0  0  0  0
   -7.6981    6.3650   27.7810 C   0  0  0  0  0  0  0  0  0  0  0  0
   -3.2751    0.8097   28.8376 C   0  0  0  0  0  0  0  0  0  0  0  0
   -2.7080   -0.3311   29.4123 N   0  0  0  0  0  0  0  0  0  0  0  0
   -1.7696   -1.1685   28.9736 C   0  0  0  0  0  0  0  0  0  0  0  0
   -3.4753   -0.7788   30.6239 C   0  0  0  0  0  0  0  0  0  0  0  0
   -2.9221   -1.5831   31.3223 C   0  0  0  0  0  0  0  0  0  0  0  0
   -1.1677   -2.0685   29.7994 C   0  0  0  0  0  0  0  0  0  0  0  0
   -1.7466   -2.3211   31.0231 C   0  0  0  0  0  0  0  0  0  0  0  0
  -10.9938    3.3520   25.6269 C   0  0  0  0  0  0  0  0  0  0  0  0
  -12.1209    2.9942   26.2921 C   0  0  0  0  0  0  0  0  0  0  0  0
  -11.0663    3.4833   24.2047 C   0  0  0  0  0  0  0  0  0  0  0  0
  -12.1249    3.3993   23.4861 C   0  0  0  0  0  0  0  0  0  0  0  0
  -13.3403    2.8898   25.6002 C   0  0  0  0  0  0  0  0  0  0  0  0
  -13.3593    3.1361   24.2020 C   0  0  0  0  0  0  0  0  0  0  0  0
   -8.3643    7.5048   27.1202 C   0  0  0  0  0  0  0  0  0  0  0  0
  2  7  1  0
  4 13  1  0
  9 14  1  0
 14 15  1  0
 15 16  1  0
 15 17  1  0
 18 20  1  0
 19 20  1  0
  6 21  1  0
 13 27  1  0
 16 19  1  0
 18 17  1  0
  7  8  2  0
  8  9  1  0
  9 10  2  0
 10 12  1  0
 12 11  2  0
 11  7  1  0
  1  2  2  0
  2  3  1  0
  3  6  2  0
  6  5  1  0
  5  4  2  0
  4  1  1  0
 21 22  2  0
 22 25  1  0
 25 26  2  0
 26 24  1  0
 24 23  2  0
 23 21  1  0
M  END
$$$$
