No_8629-complexes_sdf/6BKW-FPZ/2024-09-17-14-21-01/
     RDKit          3D

 30 33  0  0  0  0  0  0  0  0999 V2000
   -7.7129    4.2099   27.0854 C   0  0  0  0  0  0  0  0  0  0  0  0
   -8.2112    3.0637   26.9225 C   0  0  0  0  0  0  0  0  0  0  0  0
   -8.5108    5.3904   26.9436 C   0  0  0  0  0  0  0  0  0  0  0  0
   -9.7256    5.1955   26.3518 C   0  0  0  0  0  0  0  0  0  0  0  0
   -9.4995    2.8258   26.4878 C   0  0  0  0  0  0  0  0  0  0  0  0
  -10.2542    3.9691   26.2055 C   0  0  0  0  0  0  0  0  0  0  0  0
   -7.9456    6.5695   27.1656 F   0  0  0  0  0  0  0  0  0  0  0  0
   -7.3632    1.8215   27.2517 C   0  0  0  0  0  0  0  0  0  0  0  0
   -6.0601    2.0021   27.7295 C   0  0  0  0  0  0  0  0  0  0  0  0
   -5.2596    0.8435   28.0589 C   0  0  0  0  0  0  0  0  0  0  0  0
   -5.7750   -0.4091   27.9325 C   0  0  0  0  0  0  0  0  0  0  0  0
   -7.6461    0.4552   27.1653 C   0  0  0  0  0  0  0  0  0  0  0  0
   -7.0153   -0.5550   27.4949 C   0  0  0  0  0  0  0  0  0  0  0  0
   -3.8654    1.1217   28.5751 C   0  0  0  0  0  0  0  0  0  0  0  0
   -2.9738    0.1924   28.4961 N   0  0  0  0  0  0  0  0  0  0  0  0
   -2.7300   -0.6112   29.4964 C   0  0  1  0  0  0  0  0  0  0  0  0
   -1.6525   -1.5728   29.3485 C   0  0  0  0  0  0  0  0  0  0  0  0
   -2.2990   -0.0504   27.3040 C   0  0  1  0  0  0  0  0  0  0  0  0
   -1.4078   -1.0734   27.0736 C   0  0  0  0  0  0  0  0  0  0  0  0
   -1.0167   -1.7655   28.2178 C   0  0  0  0  0  0  0  0  0  0  0  0
   -2.6626    0.7485   26.2074 N   0  0  0  0  0  0  0  0  0  0  0  0
   -3.2223   -0.3792   30.7390 N   0  0  0  0  0  0  0  0  0  0  0  0
   -3.7240   -1.1347   31.6530 C   0  0  0  0  0  0  0  0  0  0  0  0
   -4.2699   -0.5394   32.7906 C   0  0  0  0  0  0  0  0  0  0  0  0
   -3.7693   -2.5096   31.4403 C   0  0  0  0  0  0  0  0  0  0  0  0
   -5.0600   -1.2914   33.7063 C   0  0  0  0  0  0  0  0  0  0  0  0
   -3.4125   -3.0993   30.3389 C   0  0  0  0  0  0  0  0  0  0  0  0
   -3.6962   -4.5386   30.2081 C   0  0  0  0  0  0  0  0  0  0  0  0
   -5.1622   -2.6465   33.5270 C   0  0  0  0  0  0  0  0  0  0  0  0
   -4.6131   -3.2633   32.4445 C   0  0  0  0  0  0  0  0  0  0  0  0
  3  7  1  0
  2  8  1  0
 10 14  1  0
 14 15  1  0
 15 16  1  0
 15 18  1  0
 17 20  1  0
 19 20  1  0
 18 21  1  6
 16 22  1  1
 22 23  1  0
 25 27  1  0
 27 28  2  0
 16 17  1  0
 19 18  1  0
 23 24  2  0
 24 26  1  0
 26 29  2  0
 29 30  1  0
 30 25  2  0
 25 23  1  0
  1  2  2  0
  2  5  1  0
  5  6  2  0
  6  4  1  0
  4  3  2  0
  3  1  1  0
  8  9  2  0
  9 10  1  0
 10 11  2  0
 11 13  1  0
 13 12  2  0
 12  8  1  0
M  END
$$$$
