No_8495-complexes_sdf/6BKW-FPZ/2024-09-17-14-21-01/
     RDKit          3D

 25 28  0  0  0  0  0  0  0  0999 V2000
   -7.9040    3.9820   27.1177 C   0  0  0  0  0  0  0  0  0  0  0  0
   -7.8663    4.8694   27.9238 C   0  0  0  0  0  0  0  0  0  0  0  0
   -9.0953    3.1697   27.0532 C   0  0  0  0  0  0  0  0  0  0  0  0
  -10.1313    3.4052   27.8871 C   0  0  0  0  0  0  0  0  0  0  0  0
   -8.9489    5.3814   28.6671 C   0  0  0  0  0  0  0  0  0  0  0  0
  -10.1039    4.5714   28.7102 C   0  0  0  0  0  0  0  0  0  0  0  0
   -9.0505    1.9437   26.1963 C   0  0  0  0  0  0  0  0  0  0  0  0
   -9.5005    2.1052   24.8742 C   0  0  0  0  0  0  0  0  0  0  0  0
   -9.9312    3.3875   24.4459 C   0  0  0  0  0  0  0  0  0  0  0  0
  -10.4067    3.6500   23.1570 C   0  0  0  0  0  0  0  0  0  0  0  0
  -10.3614    2.6311   22.2279 C   0  0  0  0  0  0  0  0  0  0  0  0
   -9.4542    1.1176   23.9512 C   0  0  0  0  0  0  0  0  0  0  0  0
   -9.8619    1.3531   22.6195 C   0  0  0  0  0  0  0  0  0  0  0  0
   -9.6047    0.6924   26.8301 C   0  0  0  0  0  0  0  0  0  0  0  0
   -8.7359   -0.1590   27.3817 C   0  0  0  0  0  0  0  0  0  0  0  0
   -9.1736   -1.3036   28.0930 C   0  0  0  0  0  0  0  0  0  0  0  0
  -10.5879   -1.4728   28.2324 C   0  0  0  0  0  0  0  0  0  0  0  0
  -11.4534   -0.5657   27.6685 C   0  0  0  0  0  0  0  0  0  0  0  0
  -10.9512    0.5832   27.0116 C   0  0  0  0  0  0  0  0  0  0  0  0
   -7.2303    0.0001   27.3479 C   0  0  0  0  0  0  0  0  0  0  0  0
   -6.6224    0.9648   27.0914 C   0  0  0  0  0  0  0  0  0  0  0  0
   -5.1480    1.0263   27.1588 C   0  0  0  0  0  0  0  0  0  0  0  0
   -4.4630   -0.0704   27.5238 C   0  0  0  0  0  0  0  0  0  0  0  0
   -6.4432   -1.1621   27.8625 C   0  0  0  0  0  0  0  0  0  0  0  0
   -5.1152   -1.1371   27.9585 C   0  0  0  0  0  0  0  0  0  0  0  0
  3  7  1  0
  7  8  1  0
  7 14  1  0
 15 20  1  0
 14 15  1  0
 15 16  2  0
 16 17  1  0
 17 18  2  0
 18 19  1  0
 19 14  2  0
 20 21  2  0
 21 22  1  0
 22 23  2  0
 23 25  1  0
 25 24  2  0
 24 20  1  0
  1  2  2  0
  2  5  1  0
  5  6  2  0
  6  4  1  0
  4  3  2  0
  3  1  1  0
  8  9  2  0
  9 10  1  0
 10 11  2  0
 11 13  1  0
 13 12  2  0
 12  8  1  0
M  END
$$$$
