No_842-complexes_sdf/6BKW-FPZ/2024-09-17-14-21-01/
     RDKit          3D

 16 17  0  0  0  0  0  0  0  0999 V2000
   -7.7129    4.2099   27.0854 C   0  0  0  0  0  0  0  0  0  0  0  0
   -7.7814    5.1722   27.8972 C   0  0  0  0  0  0  0  0  0  0  0  0
   -8.8998    3.8713   26.3707 C   0  0  0  0  0  0  0  0  0  0  0  0
   -9.9938    4.6774   26.5446 C   0  0  0  0  0  0  0  0  0  0  0  0
   -8.7789    6.1536   27.9256 C   0  0  0  0  0  0  0  0  0  0  0  0
   -9.9428    5.8398   27.2296 C   0  0  0  0  0  0  0  0  0  0  0  0
   -8.9119    2.6447   25.5685 C   0  0  0  0  0  0  0  0  0  0  0  0
   -9.7965    2.5353   24.5160 C   0  0  0  0  0  0  0  0  0  0  0  0
   -9.8470    1.4006   23.7115 C   0  0  0  0  0  0  0  0  0  0  0  0
   -8.8958    0.3527   23.9867 C   0  0  0  0  0  0  0  0  0  0  0  0
   -8.0531    0.4472   25.0634 C   0  0  0  0  0  0  0  0  0  0  0  0
   -8.0207    1.5886   25.8749 C   0  0  0  0  0  0  0  0  0  0  0  0
  -10.7272    1.3099   22.5781 C   0  0  0  0  0  0  0  0  0  0  0  0
  -10.5299    0.3970   21.7648 F   0  0  0  0  0  0  0  0  0  0  0  0
  -10.6360    2.5066   22.0505 F   0  0  0  0  0  0  0  0  0  0  0  0
  -11.9905    1.1729   23.0505 F   0  0  0  0  0  0  0  0  0  0  0  0
  3  7  1  0
  9 13  1  0
 13 14  1  0
 13 15  1  0
 13 16  1  0
  1  2  2  0
  2  5  1  0
  5  6  2  0
  6  4  1  0
  4  3  2  0
  3  1  1  0
  7  8  2  0
  8  9  1  0
  9 10  2  0
 10 11  1  0
 11 12  2  0
 12  7  1  0
M  END
$$$$
