No_8256-complexes_sdf/6BKW-FPZ/2024-09-17-14-21-01/
     RDKit          3D

 40 44  0  0  0  0  0  0  0  0999 V2000
   -7.7129    4.2099   27.0854 C   0  0  2  0  0  0  0  0  0  0  0  0
   -8.2112    3.0637   26.9225 C   0  0  2  0  0  0  0  0  0  0  0  0
   -7.0021    4.5281   28.2396 C   0  0  0  0  0  0  0  0  0  0  0  0
   -9.4237    2.7810   26.2714 C   0  0  0  0  0  0  0  0  0  0  0  0
   -9.8781    3.7859   25.4663 C   0  0  2  0  0  0  0  0  0  0  0  0
   -9.3689    5.0975   25.5965 C   0  0  0  0  0  0  0  0  0  0  0  0
   -8.4784    5.3402   26.5448 C   0  0  2  0  0  0  0  0  0  0  0  0
  -10.9798    3.5389   24.5162 C   0  0  0  0  0  0  0  0  0  0  0  0
  -12.1748    3.3346   24.9229 C   0  0  0  0  0  0  0  0  0  0  0  0
  -10.6839    3.5580   23.1254 C   0  0  0  0  0  0  0  0  0  0  0  0
  -11.5176    3.4105   22.1098 C   0  0  0  0  0  0  0  0  0  0  0  0
  -13.2408    3.2310   23.9115 C   0  0  0  0  0  0  0  0  0  0  0  0
  -12.8989    3.2591   22.5470 C   0  0  0  0  0  0  0  0  0  0  0  0
   -7.6531    1.9143   27.5928 N   0  0  0  0  0  0  0  0  0  0  0  0
   -6.8831    0.9610   27.0454 C   0  0  0  0  0  0  0  0  0  0  0  0
   -6.2470    0.0412   27.9046 C   0  0  0  0  0  0  0  0  0  0  0  0
   -6.7963   -1.1583   28.2981 C   0  0  0  0  0  0  0  0  0  0  0  0
   -6.1513   -2.0057   29.2263 C   0  0  0  0  0  0  0  0  0  0  0  0
   -4.9000   -1.6239   29.7438 C   0  0  0  0  0  0  0  0  0  0  0  0
   -4.2708   -0.4261   29.3086 C   0  0  0  0  0  0  0  0  0  0  0  0
   -4.9635    0.4173   28.4513 C   0  0  0  0  0  0  0  0  0  0  0  0
   -6.8886    0.7421   25.8382 O   0  0  0  0  0  0  0  0  0  0  0  0
   -4.2313    1.8940   28.0035 Cl  0  0  0  0  0  0  0  0  0  0  0  0
   -8.2850    6.6737   26.7980 N   0  0  0  0  0  0  0  0  0  0  0  0
   -6.9452    5.8203   28.8987 C   0  0  0  0  0  0  0  0  0  0  0  0
   -8.7307    7.8210   26.3780 C   0  0  0  0  0  0  0  0  0  0  0  0
   -7.3164    6.8605   28.0957 C   0  0  0  0  0  0  0  0  0  0  0  0
   -4.0059   -2.7124   30.9975 Br  0  0  0  0  0  0  0  0  0  0  0  0
  -12.5854    3.1615   26.5501 Cl  0  0  0  0  0  0  0  0  0  0  0  0
   -7.9865   -1.5001   27.8545 O   0  0  0  0  0  0  0  0  0  0  0  0
   -8.3507   -2.2169   27.1260 C   0  0  0  0  0  0  0  0  0  0  0  0
   -9.5012   -2.0235   26.5256 C   0  0  1  0  0  0  0  0  0  0  0  0
  -10.6364   -1.5825   27.1507 C   0  0  0  0  0  0  0  0  0  0  0  0
  -10.9107   -1.4706   28.1798 C   0  0  0  0  0  0  0  0  0  0  0  0
  -12.1445   -0.8831   28.8869 C   0  0  0  0  0  0  0  0  0  0  0  0
  -13.0686   -0.3847   27.9866 C   0  0  0  0  0  0  0  0  0  0  0  0
  -12.8498   -0.4856   26.6175 C   0  0  0  0  0  0  0  0  0  0  0  0
  -11.6537   -0.9937   26.1414 C   0  0  0  0  0  0  0  0  0  0  0  0
   -9.5742   -2.2252   25.0501 C   0  0  0  0  0  0  0  0  0  0  0  0
   -8.4797   -2.9101   24.5578 C   0  0  0  0  0  0  0  0  0  0  0  0
  1  2  1  0
  2  4  1  0
  4  5  1  0
  5  6  1  0
  1  7  1  0
  7  6  1  6
  5  8  1  1
  2 14  1  1
 14 15  1  0
 15 16  1  0
 15 22  2  0
 21 23  1  0
  7 24  1  0
  3 25  1  0
 24 26  1  0
 24 27  1  0
 25 27  1  0
 19 28  1  0
  9 29  1  0
 17 30  1  0
 30 31  1  0
 32 31  1  6
 32 33  1  0
 32 39  1  0
 39 40  1  0
  1  3  1  1
 33 34  2  0
 34 35  1  0
 35 36  2  0
 36 37  1  0
 37 38  2  0
 38 33  1  0
  8  9  2  0
  9 12  1  0
 12 13  2  0
 13 11  1  0
 11 10  2  0
 10  8  1  0
 16 17  1  0
 17 18  2  0
 18 19  1  0
 19 20  2  0
 20 21  1  0
 21 16  2  0
M  END
$$$$
