No_8402-complexes_sdf/6BKW-FPZ/2024-09-17-14-21-01/
     RDKit          3D

 23 25  0  0  0  0  0  0  0  0999 V2000
   -7.7129    4.2099   27.0854 C   0  0  0  0  0  0  0  0  0  0  0  0
   -8.2112    3.0637   26.9225 C   0  0  0  0  0  0  0  0  0  0  0  0
   -9.4446    2.8304   26.1868 C   0  0  0  0  0  0  0  0  0  0  0  0
   -6.6388    4.5347   28.1122 C   0  0  0  0  0  0  0  0  0  0  0  0
   -9.9448    3.9173   25.5585 C   0  0  0  0  0  0  0  0  0  0  0  0
   -9.3660    5.1901   25.7094 C   0  0  0  0  0  0  0  0  0  0  0  0
   -8.3659    5.4005   26.5436 C   0  0  0  0  0  0  0  0  0  0  0  0
  -11.1201    3.7822   24.6455 C   0  0  0  0  0  0  0  0  0  0  0  0
  -11.2357    2.7445   23.8393 C   0  0  0  0  0  0  0  0  0  0  0  0
  -12.3713    2.6596   22.9484 C   0  0  0  0  0  0  0  0  0  0  0  0
  -13.2631    3.7560   22.9179 C   0  0  0  0  0  0  0  0  0  0  0  0
  -13.0916    4.8123   23.7614 C   0  0  0  0  0  0  0  0  0  0  0  0
  -12.0465    4.8998   24.6369 C   0  0  0  0  0  0  0  0  0  0  0  0
   -6.6784    5.6664   28.7013 N   0  0  0  0  0  0  0  0  0  0  0  0
   -5.5463    3.7757   27.9783 N   0  0  0  0  0  0  0  0  0  0  0  0
  -14.4352    3.7006   22.0194 C   0  0  2  0  0  0  0  0  0  0  0  0
  -14.3302    4.0933   20.7924 C   0  0  0  0  0  0  0  0  0  0  0  0
  -13.0161    4.3291   20.2251 C   0  0  0  0  0  0  0  0  0  0  0  0
  -12.8673    4.3777   18.7552 C   0  0  0  0  0  0  0  0  0  0  0  0
  -14.0085    4.4514   17.9262 C   0  0  0  0  0  0  0  0  0  0  0  0
  -15.2725    4.3025   18.5216 C   0  0  0  0  0  0  0  0  0  0  0  0
  -15.4136    4.1179   19.8465 C   0  0  0  0  0  0  0  0  0  0  0  0
  -15.4817    4.5519   22.7670 C   0  0  0  0  0  0  0  0  0  0  0  0
  1  4  1  0
  5  8  1  0
  4 14  2  0
  4 15  1  0
 11 16  1  0
 16 23  1  1
 16 17  1  0
 17 18  2  0
 18 19  1  0
 19 20  2  0
 20 21  1  0
 21 22  2  0
 22 17  1  0
  8  9  2  0
  9 10  1  0
 10 11  2  0
 11 12  1  0
 12 13  2  0
 13  8  1  0
  1  2  2  0
  2  3  1  0
  3  5  2  0
  5  6  1  0
  6  7  2  0
  7  1  1  0
M  END
$$$$
