No_8548-complexes_sdf/6BKW-FPZ/2024-09-17-14-21-01/
     RDKit          3D

 30 32  0  0  0  0  0  0  0  0999 V2000
   -7.2496    3.8871   27.4508 C   0  0  0  0  0  0  0  0  0  0  0  0
   -7.9379    4.9063   27.8518 C   0  0  0  0  0  0  0  0  0  0  0  0
   -7.5112    6.1898   27.6280 C   0  0  0  0  0  0  0  0  0  0  0  0
   -7.8078    2.6331   27.2522 C   0  0  0  0  0  0  0  0  0  0  0  0
   -9.0519    2.5742   27.1375 C   0  0  0  0  0  0  0  0  0  0  0  0
   -9.9394    3.5573   27.6551 C   0  0  0  0  0  0  0  0  0  0  0  0
   -9.3786    4.8562   27.8916 C   0  0  0  0  0  0  0  0  0  0  0  0
   -6.7614    1.3172   26.8281 Cl  0  0  0  0  0  0  0  0  0  0  0  0
  -11.3628    3.2901   27.7993 C   0  0  0  0  0  0  0  0  0  0  0  0
  -11.7407    2.1804   28.4770 C   0  0  0  0  0  0  0  0  0  0  0  0
  -13.0786    1.8327   28.7845 C   0  0  0  0  0  0  0  0  0  0  0  0
  -14.0479    2.8044   28.4367 C   0  0  0  0  0  0  0  0  0  0  0  0
  -12.3343    4.2849   27.5772 C   0  0  0  0  0  0  0  0  0  0  0  0
  -13.6467    4.0303   27.8347 C   0  0  0  0  0  0  0  0  0  0  0  0
  -13.4566    0.5671   29.3657 C   0  0  0  0  0  0  0  0  0  0  0  0
  -12.8087   -0.4337   29.0459 O   0  0  0  0  0  0  0  0  0  0  0  0
  -14.4353    0.5059   30.1590 O   0  0  0  0  0  0  0  0  0  0  0  0
  -13.2664   -1.6223   28.7016 C   0  0  0  0  0  0  0  0  0  0  0  0
  -12.3373   -2.4916   28.2313 C   0  0  0  0  0  0  0  0  0  0  0  0
  -12.6810   -3.5897   27.8247 C   0  0  0  0  0  0  0  0  0  0  0  0
  -11.7171   -4.5576   27.2754 C   0  0  0  0  0  0  0  0  0  0  0  0
  -10.3659   -4.1930   27.2553 C   0  0  0  0  0  0  0  0  0  0  0  0
   -9.9676   -2.9364   27.7078 C   0  0  0  0  0  0  0  0  0  0  0  0
  -10.8993   -2.1062   28.1955 C   0  0  0  0  0  0  0  0  0  0  0  0
   -9.3435   -5.1169   26.7328 C   0  0  0  0  0  0  0  0  0  0  0  0
   -9.3563   -6.2792   26.8436 C   0  0  0  0  0  0  0  0  0  0  0  0
  -10.3891   -6.9906   27.5839 C   0  0  0  0  0  0  0  0  0  0  0  0
  -10.2207   -8.3673   27.7578 C   0  0  0  0  0  0  0  0  0  0  0  0
   -9.1612   -8.9935   27.1622 C   0  0  0  0  0  0  0  0  0  0  0  0
   -8.2146   -8.3856   26.4634 C   0  0  0  0  0  0  0  0  0  0  0  0
  4  8  1  0
  6  9  1  0
 11 15  1  0
 15 16  1  0
 15 17  2  0
 16 18  1  0
 18 19  1  0
 22 25  1  0
 25 26  2  3
 26 27  1  0
 27 28  2  3
 28 29  1  0
 29 30  2  0
  3  2  1  0
  1  2  2  0
  2  7  1  0
  7  6  2  0
  6  5  1  0
  5  4  2  0
  4  1  1  0
 19 20  2  0
 20 21  1  0
 21 22  2  0
 22 23  1  0
 23 24  2  0
 24 19  1  0
  9 10  2  0
 10 11  1  0
 11 12  2  0
 12 14  1  0
 14 13  2  0
 13  9  1  0
M  END
$$$$
