No_8086-complexes_sdf/6BKW-FPZ/2024-09-17-14-21-01/
     RDKit          3D

 35 40  0  0  0  0  0  0  0  0999 V2000
   -7.2496    3.8871   27.4508 C   0  0  0  0  0  0  0  0  0  0  0  0
   -8.5096    4.0291   27.2770 C   0  0  0  0  0  0  0  0  0  0  0  0
   -9.2677    5.1714   27.5773 C   0  0  0  0  0  0  0  0  0  0  0  0
   -9.2765    2.8248   26.8371 C   0  0  0  0  0  0  0  0  0  0  0  0
  -10.4623    3.0171   26.3236 C   0  0  0  0  0  0  0  0  0  0  0  0
  -10.8972    2.6250   25.3350 C   0  0  0  0  0  0  0  0  0  0  0  0
  -12.2133    2.9588   24.7026 C   0  0  0  0  0  0  0  0  0  0  0  0
  -10.5843    5.3403   27.2292 C   0  0  0  0  0  0  0  0  0  0  0  0
  -11.1765    4.3354   26.5199 C   0  0  0  0  0  0  0  0  0  0  0  0
   -6.5439    2.6998   27.4910 N   0  0  0  0  0  0  0  0  0  0  0  0
  -12.8258    3.9965   25.2119 C   0  0  0  0  0  0  0  0  0  0  0  0
  -12.4152    4.7600   26.0425 C   0  0  0  0  0  0  0  0  0  0  0  0
   -7.1810    1.5699   27.1269 C   0  0  0  0  0  0  0  0  0  0  0  0
   -8.5743    1.6523   26.7142 C   0  0  0  0  0  0  0  0  0  0  0  0
   -6.4664    0.4421   27.0639 N   0  0  0  0  0  0  0  0  0  0  0  0
   -6.3142   -0.3504   27.9371 C   0  0  0  0  0  0  0  0  0  0  0  0
   -5.3621   -1.3780   27.8907 C   0  0  0  0  0  0  0  0  0  0  0  0
   -4.9770   -2.0396   29.0343 C   0  0  0  0  0  0  0  0  0  0  0  0
   -5.5569   -1.7847   30.3075 C   0  0  0  0  0  0  0  0  0  0  0  0
   -6.5593   -0.8410   30.3180 C   0  0  0  0  0  0  0  0  0  0  0  0
   -6.8665   -0.1248   29.2757 C   0  0  0  0  0  0  0  0  0  0  0  0
   -6.4979    4.9602   28.0471 N   0  0  0  0  0  0  0  0  0  0  0  0
   -5.1795   -2.5434   31.5259 C   0  0  0  0  0  0  0  0  0  0  0  0
   -5.9935   -2.7043   32.4520 C   0  0  0  0  0  0  0  0  0  0  0  0
   -5.5933   -3.1787   33.6832 C   0  0  0  0  0  0  0  0  0  0  0  0
   -4.2753   -3.6209   33.8400 C   0  0  0  0  0  0  0  0  0  0  0  0
   -3.3913   -3.4335   32.8673 C   0  0  0  0  0  0  0  0  0  0  0  0
   -3.7403   -2.7533   31.6530 C   0  0  0  0  0  0  0  0  0  0  0  0
  -12.7939    2.0706   23.6299 C   0  0  0  0  0  0  0  0  0  0  0  0
  -12.4915    1.9802   22.6778 C   0  0  0  0  0  0  0  0  0  0  0  0
  -13.0419    1.0494   21.6069 C   0  0  0  0  0  0  0  0  0  0  0  0
  -13.3264    0.8828   24.1931 C   0  0  0  0  0  0  0  0  0  0  0  0
  -13.9939   -0.0132   23.3897 C   0  0  0  0  0  0  0  0  0  0  0  0
  -13.7374    0.0483   22.0745 C   0  0  0  0  0  0  0  0  0  0  0  0
  -14.4759   -0.9644   20.9137 Cl  0  0  0  0  0  0  0  0  0  0  0  0
 13 15  1  0
 15 16  1  0
  1 22  1  0
 19 23  1  0
  7 29  1  0
 34 35  1  0
 23 24  2  0
 24 25  1  0
 25 26  2  0
 26 27  1  0
 27 28  2  0
 28 23  1  0
 29 30  2  0
 30 31  1  0
 31 34  2  0
 34 33  1  0
 33 32  2  0
 32 29  1  0
  2  3  1  0
  3  8  2  0
  8  9  1  0
  5  4  1  0
  5  6  2  0
  6  7  1  0
  7 11  2  0
 11 12  1  0
 12  9  2  0
  9  5  1  0
  1  2  2  0
  2  4  1  0
  4 14  2  0
 14 13  1  0
 13 10  2  0
 10  1  1  0
 16 17  2  0
 17 18  1  0
 18 19  2  0
 19 20  1  0
 20 21  2  0
 21 16  1  0
M  END
$$$$
