No_8473-complexes_sdf/6BKW-FPZ/2024-09-17-14-21-01/
     RDKit          3D

 13 14  0  0  0  0  0  0  0  0999 V2000
   -7.7129    4.2099   27.0854 C   0  0  0  0  0  0  0  0  0  0  0  0
   -7.7814    5.1722   27.8972 C   0  0  0  0  0  0  0  0  0  0  0  0
   -8.8776    3.8408   26.3416 C   0  0  0  0  0  0  0  0  0  0  0  0
   -8.9136    2.6330   25.5655 C   0  0  0  0  0  0  0  0  0  0  0  0
   -8.8361    6.1389   27.9032 C   0  0  0  0  0  0  0  0  0  0  0  0
   -9.8295    4.8219   26.2725 C   0  0  0  0  0  0  0  0  0  0  0  0
   -9.8494    5.9177   27.0428 C   0  0  0  0  0  0  0  0  0  0  0  0
   -9.8388    2.4128   24.5955 C   0  0  0  0  0  0  0  0  0  0  0  0
  -10.0015    1.1954   24.0588 C   0  0  0  0  0  0  0  0  0  0  0  0
  -10.9327    0.9615   22.9555 C   0  0  0  0  0  0  0  0  0  0  0  0
  -11.6905    2.0887   22.5403 C   0  0  0  0  0  0  0  0  0  0  0  0
  -11.5205    3.3005   23.0741 C   0  0  0  0  0  0  0  0  0  0  0  0
  -10.5445    3.5147   24.1087 C   0  0  0  0  0  0  0  0  0  0  0  0
  3  4  1  0
  4  8  1  0
  8  9  2  0
  9 10  1  0
 10 11  2  0
 11 12  1  0
 12 13  2  0
 13  8  1  0
  1  2  2  0
  2  5  1  0
  5  7  2  0
  7  6  1  0
  6  3  2  0
  3  1  1  0
M  END
$$$$
