No_8002-complexes_sdf/6BKW-FPZ/2024-09-17-14-21-01/
     RDKit          3D

 34 41  0  0  0  0  0  0  0  0999 V2000
   -7.7129    4.2099   27.0854 C   0  0  0  0  0  0  0  0  0  0  0  0
   -7.7814    5.1722   27.8972 C   0  0  0  0  0  0  0  0  0  0  0  0
   -7.3155    2.9699   27.6145 C   0  0  0  0  0  0  0  0  0  0  0  0
   -7.9010    1.7962   27.2023 C   0  0  0  0  0  0  0  0  0  0  0  0
   -8.9578    1.9047   26.2707 C   0  0  0  0  0  0  0  0  0  0  0  0
   -9.3989    3.1000   25.8096 C   0  0  0  0  0  0  0  0  0  0  0  0
   -8.8948    4.1615   26.3218 C   0  0  0  0  0  0  0  0  0  0  0  0
   -8.2271    6.4668   27.5438 N   0  0  0  0  0  0  0  0  0  0  0  0
   -9.1092    6.6799   26.5572 C   0  0  0  0  0  0  0  0  0  0  0  0
   -9.5065    5.5006   25.9551 C   0  0  0  0  0  0  0  0  0  0  0  0
   -7.1652    0.2943   27.6020 Cl  0  0  0  0  0  0  0  0  0  0  0  0
  -10.4286    3.0708   24.7806 C   0  0  2  0  0  0  0  0  0  0  0  0
  -10.2485    2.3177   23.6701 C   0  0  0  0  0  0  0  0  0  0  0  0
   -9.9271    1.0370   23.7811 C   0  0  0  0  0  0  0  0  0  0  0  0
  -10.0396    0.2494   22.5340 C   0  0  0  0  0  0  0  0  0  0  0  0
   -9.5890   -1.1186   22.4726 C   0  0  0  0  0  0  0  0  0  0  0  0
   -9.0954   -1.6340   23.6777 C   0  0  0  0  0  0  0  0  0  0  0  0
   -9.0146   -0.9776   24.8049 C   0  0  0  0  0  0  0  0  0  0  0  0
   -9.3414    0.3224   24.8984 C   0  0  0  0  0  0  0  0  0  0  0  0
   -9.2829    0.7929   25.6496 N   0  0  0  0  0  0  0  0  0  0  0  0
  -11.0842    2.8059   22.5857 C   0  0  0  0  0  0  0  0  0  0  0  0
  -11.3935    3.9538   22.4010 C   0  0  0  0  0  0  0  0  0  0  0  0
  -11.7144    4.7378   23.5703 C   0  0  0  0  0  0  0  0  0  0  0  0
  -10.5734    4.6277   24.4649 C   0  0  2  0  0  0  0  0  0  0  0  0
   -9.9152    5.4889   24.7376 N   0  0  0  0  0  0  0  0  0  0  0  0
  -11.7712    2.6885   25.5766 C   0  0  0  0  0  0  0  0  0  0  0  0
  -12.3842    3.0248   26.2940 C   0  0  0  0  0  0  0  0  0  0  0  0
  -13.5505    2.5067   26.9689 C   0  0  0  0  0  0  0  0  0  0  0  0
  -13.9983    1.3562   26.3783 C   0  0  0  0  0  0  0  0  0  0  0  0
  -13.3522    0.7553   25.3215 C   0  0  0  0  0  0  0  0  0  0  0  0
  -12.2269    1.4136   24.8958 C   0  0  0  0  0  0  0  0  0  0  0  0
  -12.6528    1.5696   23.2348 Cl  0  0  0  0  0  0  0  0  0  0  0  0
  -10.7892    2.1267   21.2589 C   0  0  0  0  0  0  0  0  0  0  0  0
  -10.3286    1.1091   21.3378 C   0  0  0  0  0  0  0  0  0  0  0  0
  4 11  1  0
  6 12  1  0
 12 13  1  0
  5 20  1  0
 19 20  1  0
 22 23  1  0
 12 24  1  0
 24 23  1  6
 10 25  1  0
 24 25  1  0
 12 26  1  1
 31 32  1  0
 21 22  1  0
  1  2  2  0
  2  8  1  0
  8  9  2  0
  9 10  1  0
 10  7  2  0
  1  3  1  0
  3  4  2  0
  4  5  1  0
  5  6  2  0
  6  7  1  0
  7  1  1  0
 13 14  2  0
 15 34  2  0
 34 33  1  0
 33 21  2  0
 21 13  1  0
 14 15  1  0
 15 16  1  0
 16 17  2  0
 17 18  1  0
 18 19  2  0
 19 14  1  0
 26 27  2  0
 27 28  1  0
 28 29  2  0
 29 30  1  0
 30 31  2  0
 31 26  1  0
M  END
$$$$
