No_8462-complexes_sdf/6BKW-FPZ/2024-09-17-14-21-01/
     RDKit          3D

 10 10  0  0  0  0  0  0  0  0999 V2000
   -7.2496    3.8871   27.4508 C   0  0  0  0  0  0  0  0  0  0  0  0
   -8.5096    4.0291   27.2770 C   0  0  0  0  0  0  0  0  0  0  0  0
   -9.2669    5.1645   27.5845 C   0  0  0  0  0  0  0  0  0  0  0  0
   -8.4566    6.3212   27.8001 C   0  0  0  0  0  0  0  0  0  0  0  0
   -6.5575    5.0099   27.7732 N   0  0  0  0  0  0  0  0  0  0  0  0
   -7.1874    6.1734   27.9526 C   0  0  0  0  0  0  0  0  0  0  0  0
   -9.3634    2.7551   27.0044 C   0  0  0  0  0  0  0  0  0  0  0  0
   -8.7192    1.7674   27.1176 F   0  0  0  0  0  0  0  0  0  0  0  0
  -10.4534    2.7346   27.8254 F   0  0  0  0  0  0  0  0  0  0  0  0
   -9.8073    2.9396   25.6957 F   0  0  0  0  0  0  0  0  0  0  0  0
  2  7  1  0
  7  8  1  0
  7  9  1  0
  7 10  1  0
  1  2  2  0
  2  3  1  0
  3  4  2  0
  4  6  1  0
  6  5  2  0
  5  1  1  0
M  END
$$$$
