No_8009-complexes_sdf/6BKW-FPZ/2024-09-17-14-21-01/
     RDKit          3D

 16 17  0  0  0  0  0  0  0  0999 V2000
   -7.7129    4.2099   27.0854 C   0  0  0  0  0  0  0  0  0  0  0  0
   -7.7814    5.1722   27.8972 C   0  0  0  0  0  0  0  0  0  0  0  0
   -8.8998    3.8713   26.3707 C   0  0  0  0  0  0  0  0  0  0  0  0
   -9.9938    4.6774   26.5446 C   0  0  0  0  0  0  0  0  0  0  0  0
   -8.7789    6.1536   27.9256 C   0  0  0  0  0  0  0  0  0  0  0  0
   -9.9428    5.8398   27.2296 C   0  0  0  0  0  0  0  0  0  0  0  0
   -8.9119    2.6447   25.5685 C   0  0  0  0  0  0  0  0  0  0  0  0
   -8.2955    1.5559   26.0609 N   0  0  0  0  0  0  0  0  0  0  0  0
   -8.1666    0.4266   25.3563 C   0  0  0  0  0  0  0  0  0  0  0  0
   -7.2324   -0.5216   25.8165 C   0  0  0  0  0  0  0  0  0  0  0  0
   -6.6667   -1.3578   25.0491 C   0  0  0  0  0  0  0  0  0  0  0  0
   -6.6938   -1.3245   23.9522 C   0  0  0  0  0  0  0  0  0  0  0  0
   -7.5875   -0.3375   23.2173 C   0  0  0  0  0  0  0  0  0  0  0  0
   -8.1179    0.5868   23.9951 C   0  0  0  0  0  0  0  0  0  0  0  0
   -9.6007    2.6702   24.5626 O   0  0  0  0  0  0  0  0  0  0  0  0
   -6.6154    5.5946   28.5769 O   0  0  0  0  0  0  0  0  0  0  0  0
  3  7  1  0
  7  8  1  0
  8  9  1  0
  7 15  2  0
  2 16  1  0
  9 10  2  0
 10 11  1  0
 11 12  2  0
 12 13  1  0
 13 14  2  0
 14  9  1  0
  1  2  2  0
  2  5  1  0
  5  6  2  0
  6  4  1  0
  4  3  2  0
  3  1  1  0
M  END
$$$$
