No_8583-complexes_sdf/6BKW-FPZ/2024-09-17-14-21-01/
     RDKit          3D

 16 18  0  0  0  0  0  0  0  0999 V2000
   -7.7129    4.2099   27.0854 C   0  0  0  0  0  0  0  0  0  0  0  0
   -8.9133    4.4736   27.0998 C   0  0  0  0  0  0  0  0  0  0  0  0
   -9.7937    3.7367   26.2091 C   0  0  0  0  0  0  0  0  0  0  0  0
   -6.8266    5.0441   28.0594 C   0  0  0  0  0  0  0  0  0  0  0  0
   -9.2322    2.6276   25.6126 C   0  0  0  0  0  0  0  0  0  0  0  0
   -7.9794    2.1924   25.9863 C   0  0  0  0  0  0  0  0  0  0  0  0
   -7.2411    2.9387   26.9009 C   0  0  0  0  0  0  0  0  0  0  0  0
  -10.0894    1.7793   24.7540 C   0  0  0  0  0  0  0  0  0  0  0  0
  -10.0344    0.5790   24.7192 C   0  0  0  0  0  0  0  0  0  0  0  0
   -9.1920   -0.0972   25.7066 C   0  0  0  0  0  0  0  0  0  0  0  0
   -9.1272   -1.5600   25.7795 C   0  0  0  0  0  0  0  0  0  0  0  0
   -8.1698    0.6099   26.4053 C   0  0  0  0  0  0  0  0  0  0  0  0
   -8.3079   -2.1443   26.6010 C   0  0  0  0  0  0  0  0  0  0  0  0
   -7.3776   -1.3292   27.3849 C   0  0  0  0  0  0  0  0  0  0  0  0
   -7.2509    0.0178   27.2564 C   0  0  0  0  0  0  0  0  0  0  0  0
   -9.4216    5.8870   27.3983 C   0  0  0  0  0  0  0  0  0  0  0  0
  1  4  1  0
  2 16  1  0
 10 11  2  0
 11 13  1  0
 13 14  2  0
 14 15  1  0
 15 12  2  0
  6 12  1  0
 12 10  1  0
 10  9  1  0
  9  8  2  0
  8  5  1  0
  1  2  2  0
  2  3  1  0
  3  5  2  0
  5  6  1  0
  6  7  2  0
  7  1  1  0
M  END
$$$$
