No_8349-complexes_sdf/6BKW-FPZ/2024-09-17-14-21-01/
     RDKit          3D

 30 32  0  0  0  0  0  0  0  0999 V2000
   -7.9040    3.9820   27.1177 C   0  0  0  0  0  0  0  0  0  0  0  0
   -9.0711    4.3164   27.0630 C   0  0  0  0  0  0  0  0  0  0  0  0
   -9.5294    5.4517   27.7215 C   0  0  0  0  0  0  0  0  0  0  0  0
   -7.4336    2.7132   26.5681 C   0  0  0  0  0  0  0  0  0  0  0  0
   -8.3353    1.8569   26.0442 C   0  0  0  0  0  0  0  0  0  0  0  0
   -9.6477    2.2853   25.9146 C   0  0  0  0  0  0  0  0  0  0  0  0
  -10.0346    3.4497   26.4483 C   0  0  0  0  0  0  0  0  0  0  0  0
   -8.0665    0.4920   25.6297 C   0  0  0  0  0  0  0  0  0  0  0  0
   -7.1114   -0.1422   26.2327 N   0  0  0  0  0  0  0  0  0  0  0  0
   -6.8396    0.1299   27.4721 C   0  0  0  0  0  0  0  0  0  0  0  0
   -5.4903   -0.3839   28.0632 C   0  0  0  0  0  0  0  0  0  0  0  0
   -4.7981    0.5188   28.8275 C   0  0  0  0  0  0  0  0  0  0  0  0
   -3.6191    0.0570   29.4449 C   0  0  0  0  0  0  0  0  0  0  0  0
   -3.1274   -1.1661   29.2880 C   0  0  0  0  0  0  0  0  0  0  0  0
   -3.8630   -2.0398   28.4663 C   0  0  0  0  0  0  0  0  0  0  0  0
   -5.0356   -1.6367   27.8970 C   0  0  0  0  0  0  0  0  0  0  0  0
   -8.4044    0.1451   24.5024 O   0  0  0  0  0  0  0  0  0  0  0  0
   -1.8755   -1.5721   29.9494 C   0  0  0  0  0  0  0  0  0  0  0  0
   -0.8017   -1.5561   29.3526 N   0  0  0  0  0  0  0  0  0  0  0  0
   -1.9401   -1.9523   31.3517 C   0  0  0  0  0  0  0  0  0  0  0  0
   -2.7136   -1.1839   32.2211 C   0  0  0  0  0  0  0  0  0  0  0  0
   -3.7598   -0.8338   32.1764 C   0  0  0  0  0  0  0  0  0  0  0  0
   -4.5929   -0.3146   33.3089 C   0  0  0  0  0  0  0  0  0  0  0  0
   -5.9836   -0.4658   33.2385 C   0  0  0  0  0  0  0  0  0  0  0  0
   -6.5251   -1.4623   32.3203 C   0  0  0  0  0  0  0  0  0  0  0  0
   -7.8086   -1.9239   32.4526 C   0  0  0  0  0  0  0  0  0  0  0  0
   -8.0288   -3.1014   32.3178 C   0  0  0  0  0  0  0  0  0  0  0  0
   -7.1538   -3.9330   31.5030 C   0  0  0  0  0  0  0  0  0  0  0  0
   -5.8837   -3.5013   31.2746 C   0  0  0  0  0  0  0  0  0  0  0  0
   -5.5186   -2.2331   31.8003 C   0  0  0  0  0  0  0  0  0  0  0  0
  5  8  1  0
  8  9  1  0
  9 10  1  0
  8 17  2  0
 14 18  1  0
 18 19  1  0
 18 20  1  0
 20 21  1  0
 21 22  2  3
 22 23  1  0
 23 24  2  3
 24 25  1  0
 10 11  1  0
  3  2  1  0
 11 12  2  0
 12 13  1  0
 13 14  2  0
 14 15  1  0
 15 16  2  0
 16 11  1  0
 25 26  2  0
 26 27  1  0
 27 28  2  0
 28 29  1  0
 29 30  2  0
 30 25  1  0
  1  2  2  0
  2  7  1  0
  7  6  2  0
  6  5  1  0
  5  4  2  0
  4  1  1  0
M  END
$$$$
