No_8358-complexes_sdf/6BKW-FPZ/2024-09-17-14-21-01/
     RDKit          3D

 16 17  0  0  0  0  0  0  0  0999 V2000
   -7.9040    3.9820   27.1177 C   0  0  0  0  0  0  0  0  0  0  0  0
   -8.2057    2.8231   26.8733 C   0  0  0  0  0  0  0  0  0  0  0  0
   -7.0130    4.3706   28.1140 C   0  0  0  0  0  0  0  0  0  0  0  0
   -7.4093    1.7370   27.3857 C   0  0  0  0  0  0  0  0  0  0  0  0
   -6.1712    2.1248   28.0064 C   0  0  0  0  0  0  0  0  0  0  0  0
   -5.9967    3.4283   28.2944 N   0  0  0  0  0  0  0  0  0  0  0  0
   -8.8842    5.1070   26.7371 C   0  0  0  0  0  0  0  0  0  0  0  0
   -8.9491    6.3136   27.4582 C   0  0  0  0  0  0  0  0  0  0  0  0
   -9.5608    4.9475   25.5097 C   0  0  0  0  0  0  0  0  0  0  0  0
   -5.2664    1.2223   28.3529 N   0  0  0  0  0  0  0  0  0  0  0  0
   -5.4009   -0.1206   28.2775 C   0  0  0  0  0  0  0  0  0  0  0  0
   -6.6231   -0.5548   27.6921 C   0  0  0  0  0  0  0  0  0  0  0  0
   -7.5911    0.3573   27.2033 C   0  0  0  0  0  0  0  0  0  0  0  0
   -4.4946   -0.9681   28.6911 N   0  0  0  0  0  0  0  0  0  0  0  0
   -4.5304   -2.1544   28.8031 C   0  0  0  0  0  0  0  0  0  0  0  0
   -3.5701   -2.9883   29.3456 C   0  0  0  0  0  0  0  0  0  0  0  0
  1  7  1  0
  7  8  2  0
  7  9  1  0
 11 14  1  0
 14 15  2  3
 15 16  1  0
  1  2  2  0
  2  4  1  0
  5  6  1  0
  6  3  2  0
  3  1  1  0
  4  5  2  0
  5 10  1  0
 10 11  2  0
 11 12  1  0
 12 13  2  0
 13  4  1  0
M  END
$$$$
