No_8666-complexes_sdf/6BKW-FPZ/2024-09-17-14-21-01/
     RDKit          3D

 18 20  0  0  0  0  0  0  0  0999 V2000
   -7.7129    4.2099   27.0854 C   0  0  0  0  0  0  0  0  0  0  0  0
   -8.2112    3.0637   26.9225 C   0  0  0  0  0  0  0  0  0  0  0  0
   -9.4446    2.8304   26.1868 C   0  0  0  0  0  0  0  0  0  0  0  0
   -8.4697    5.3956   26.7238 C   0  0  0  0  0  0  0  0  0  0  0  0
   -9.6172    5.2111   25.9513 C   0  0  0  0  0  0  0  0  0  0  0  0
  -10.0424    3.9782   25.6873 C   0  0  0  0  0  0  0  0  0  0  0  0
   -7.5056    1.8167   27.4088 C   0  0  0  0  0  0  0  0  0  0  0  0
   -8.0423    0.5366   27.2920 C   0  0  0  0  0  0  0  0  0  0  0  0
   -7.3570   -0.5133   27.7568 C   0  0  0  0  0  0  0  0  0  0  0  0
   -8.0109   -1.7804   27.8655 C   0  0  0  0  0  0  0  0  0  0  0  0
   -9.3585   -1.8292   27.4990 C   0  0  0  0  0  0  0  0  0  0  0  0
  -10.0528   -0.7393   27.0986 C   0  0  0  0  0  0  0  0  0  0  0  0
   -9.4668    0.4771   27.1113 C   0  0  0  0  0  0  0  0  0  0  0  0
  -10.0839    1.5596   26.2421 C   0  0  0  0  0  0  0  0  0  0  0  0
   -7.9201    6.7490   26.9749 C   0  0  0  0  0  0  0  0  0  0  0  0
   -8.5208    7.8642   26.5873 N   0  0  0  0  0  0  0  0  0  0  0  0
   -6.9406    6.7805   27.8352 O   0  0  0  0  0  0  0  0  0  0  0  0
  -11.2537    1.4008   25.8655 O   0  0  0  0  0  0  0  0  0  0  0  0
  2  7  1  0
  3 14  1  0
 13 14  1  0
  4 15  1  0
 15 16  1  0
 15 17  2  0
 14 18  2  0
  7  8  1  0
  1  2  2  0
  2  3  1  0
  3  6  2  0
  6  5  1  0
  5  4  2  0
  4  1  1  0
  8  9  2  0
  9 10  1  0
 10 11  2  0
 11 12  1  0
 12 13  2  0
 13  8  1  0
M  END
$$$$
