No_8296-complexes_sdf/6BKW-FPZ/2024-09-17-14-21-01/
     RDKit          3D

 14 15  0  0  0  0  0  0  0  0999 V2000
   -7.7129    4.2099   27.0854 C   0  0  0  0  0  0  0  0  0  0  0  0
   -8.2112    3.0637   26.9225 C   0  0  0  0  0  0  0  0  0  0  0  0
   -8.5108    5.3904   26.9436 C   0  0  0  0  0  0  0  0  0  0  0  0
   -7.9752    6.6981   27.2112 C   0  0  0  0  0  0  0  0  0  0  0  0
   -9.5213    2.8208   26.4688 C   0  0  0  0  0  0  0  0  0  0  0  0
  -10.2979    3.9327   26.2378 C   0  0  0  0  0  0  0  0  0  0  0  0
   -9.7894    5.2123   26.4395 C   0  0  0  0  0  0  0  0  0  0  0  0
   -7.3384    1.8199   27.1767 C   0  0  0  0  0  0  0  0  0  0  0  0
   -7.7124    0.5242   26.9346 C   0  0  0  0  0  0  0  0  0  0  0  0
   -6.9586   -0.5251   27.4123 C   0  0  0  0  0  0  0  0  0  0  0  0
   -5.7199   -0.2465   28.0171 C   0  0  0  0  0  0  0  0  0  0  0  0
   -5.2916    1.0731   28.2195 C   0  0  0  0  0  0  0  0  0  0  0  0
   -6.0579    2.0636   27.8826 C   0  0  0  0  0  0  0  0  0  0  0  0
   -8.6597    7.8786   26.6957 C   0  0  0  0  0  0  0  0  0  0  0  0
  3  4  1  0
  2  8  1  0
  4 14  1  0
  8  9  2  0
  9 10  1  0
 10 11  2  0
 11 12  1  0
 12 13  2  0
 13  8  1  0
  1  2  2  0
  2  5  1  0
  5  6  2  0
  6  7  1  0
  7  3  2  0
  3  1  1  0
M  END
$$$$
