No_8311-complexes_sdf/6BKW-FPZ/2024-09-17-14-21-01/
     RDKit          3D

  6  6  0  0  0  0  0  0  0  0999 V2000
   -7.2496    3.8871   27.4508 C   0  0  0  0  0  0  0  0  0  0  0  0
   -7.9379    4.9063   27.8518 C   0  0  0  0  0  0  0  0  0  0  0  0
   -7.7878    2.6733   26.8480 C   0  0  0  0  0  0  0  0  0  0  0  0
   -9.3755    4.8735   27.7048 C   0  0  0  0  0  0  0  0  0  0  0  0
   -9.2247    2.6607   26.7625 C   0  0  0  0  0  0  0  0  0  0  0  0
   -9.9912    3.7702   27.2337 C   0  0  0  0  0  0  0  0  0  0  0  0
  1  2  2  0
  2  4  1  0
  4  6  2  0
  6  5  1  0
  5  3  2  0
  3  1  1  0
M  END
$$$$
