No_8960-complexes_sdf/6BKW-FPZ/2024-09-17-14-21-01/
     RDKit          3D

 24 26  0  0  0  0  0  0  0  0999 V2000
   -7.7129    4.2099   27.0854 C   0  0  0  0  0  0  0  0  0  0  0  0
   -8.2112    3.0637   26.9225 C   0  0  0  0  0  0  0  0  0  0  0  0
   -8.5108    5.3904   26.9436 C   0  0  0  0  0  0  0  0  0  0  0  0
   -9.7256    5.1955   26.3518 C   0  0  0  0  0  0  0  0  0  0  0  0
   -7.4704    1.8386   27.3272 C   0  0  0  0  0  0  0  0  0  0  0  0
   -9.4956    2.7608   26.4620 C   0  0  0  0  0  0  0  0  0  0  0  0
  -10.2454    3.9392   26.1664 C   0  0  0  0  0  0  0  0  0  0  0  0
   -7.8503    0.5634   27.1918 C   0  0  0  0  0  0  0  0  0  0  0  0
   -7.0975   -0.4682   27.5443 C   0  0  0  0  0  0  0  0  0  0  0  0
   -5.7700   -0.2389   27.9795 C   0  0  0  0  0  0  0  0  0  0  0  0
   -5.2771    1.0647   28.0564 C   0  0  0  0  0  0  0  0  0  0  0  0
   -6.0234    2.0883   27.7130 C   0  0  0  0  0  0  0  0  0  0  0  0
   -7.9697    6.7420   27.1389 C   0  0  0  0  0  0  0  0  0  0  0  0
   -6.9276    6.9215   27.8051 N   0  0  0  0  0  0  0  0  0  0  0  0
   -8.6566    7.9050   26.5833 C   0  0  0  0  0  0  0  0  0  0  0  0
   -3.6501    1.3407   28.5840 Cl  0  0  0  0  0  0  0  0  0  0  0  0
   -7.6197   -1.8248   27.5174 C   0  0  0  0  0  0  0  0  0  0  0  0
   -8.3338   -2.4106   27.9954 C   0  0  0  0  0  0  0  0  0  0  0  0
   -9.0750   -1.7693   29.1524 C   0  0  0  0  0  0  0  0  0  0  0  0
  -10.1909   -2.0613   29.5813 C   0  0  0  0  0  0  0  0  0  0  0  0
  -10.7799   -3.2816   29.1818 C   0  0  0  0  0  0  0  0  0  0  0  0
  -10.2377   -4.0385   28.1859 C   0  0  0  0  0  0  0  0  0  0  0  0
   -9.1334   -3.5565   27.6044 C   0  0  0  0  0  0  0  0  0  0  0  0
   -6.7770   -2.4648   26.5332 F   0  0  0  0  0  0  0  0  0  0  0  0
  2  5  1  0
  3 13  1  0
 13 14  1  0
 13 15  1  0
 11 16  1  0
  9 17  1  0
 17 18  1  0
 17 24  1  0
  5  8  2  0
  8  9  1  0
  9 10  2  0
 10 11  1  0
 11 12  2  0
 12  5  1  0
  1  2  2  0
  2  6  1  0
  6  7  2  0
  7  4  1  0
  4  3  2  0
  3  1  1  0
 18 19  2  0
 19 20  1  0
 20 21  2  0
 21 22  1  0
 22 23  2  0
 23 18  1  0
M  END
$$$$
