No_8683-complexes_sdf/6BKW-FPZ/2024-09-17-14-21-01/
     RDKit          3D

 17 17  0  0  0  0  0  0  0  0999 V2000
   -7.9040    3.9820   27.1177 C   0  0  0  0  0  0  0  0  0  0  0  0
   -9.0711    4.3164   27.0630 C   0  0  0  0  0  0  0  0  0  0  0  0
   -9.5182    5.5541   27.5777 C   0  0  0  0  0  0  0  0  0  0  0  0
   -7.4468    2.6843   26.6499 C   0  0  0  0  0  0  0  0  0  0  0  0
   -8.3856    1.7878   26.2216 C   0  0  0  0  0  0  0  0  0  0  0  0
   -9.6812    2.2328   26.0889 C   0  0  0  0  0  0  0  0  0  0  0  0
  -10.0147    3.4312   26.5259 C   0  0  0  0  0  0  0  0  0  0  0  0
   -7.9143    0.4677   25.8109 C   0  0  0  0  0  0  0  0  0  0  0  0
   -7.0304   -0.1375   26.3416 F   0  0  0  0  0  0  0  0  0  0  0  0
   -8.9848   -0.3993   25.8629 F   0  0  0  0  0  0  0  0  0  0  0  0
   -7.5962    0.4935   24.4859 F   0  0  0  0  0  0  0  0  0  0  0  0
   -8.8639    6.6088   27.2180 F   0  0  0  0  0  0  0  0  0  0  0  0
   -9.5907    5.6164   29.0006 F   0  0  0  0  0  0  0  0  0  0  0  0
  -10.8597    5.7829   27.3656 F   0  0  0  0  0  0  0  0  0  0  0  0
   -6.8649    4.6760   27.7586 O   0  0  0  0  0  0  0  0  0  0  0  0
   -7.2663    5.7179   28.5189 C   0  0  0  0  0  0  0  0  0  0  0  0
   -5.9740    5.8897   29.1507 F   0  0  0  0  0  0  0  0  0  0  0  0
  2  3  1  0
  5  8  1  0
  8  9  1  0
  8 10  1  0
  8 11  1  0
  3 12  1  0
  3 13  1  0
  3 14  1  0
  1 15  1  0
 15 16  1  0
 16 17  1  0
  1  2  2  0
  2  7  1  0
  7  6  2  0
  6  5  1  0
  5  4  2  0
  4  1  1  0
M  END
$$$$
