No_8655-complexes_sdf/6BKW-FPZ/2024-09-17-14-21-01/
     RDKit          3D

 20 20  0  0  0  0  0  0  0  0999 V2000
   -7.7129    4.2099   27.0854 C   0  0  0  0  0  0  0  0  0  0  0  0
   -8.9133    4.4736   27.0998 C   0  0  0  0  0  0  0  0  0  0  0  0
   -9.7937    3.7367   26.2091 C   0  0  0  0  0  0  0  0  0  0  0  0
   -6.8266    5.0441   28.0594 C   0  0  0  0  0  0  0  0  0  0  0  0
   -9.2322    2.6276   25.6126 C   0  0  0  0  0  0  0  0  0  0  0  0
   -7.9794    2.1924   25.9863 C   0  0  0  0  0  0  0  0  0  0  0  0
   -7.2411    2.9387   26.9009 C   0  0  0  0  0  0  0  0  0  0  0  0
   -6.0471    2.5427   27.3255 N   0  0  0  0  0  0  0  0  0  0  0  0
   -7.3229    2.2604   27.6406 F   0  0  0  0  0  0  0  0  0  0  0  0
   -7.0363    4.9610   26.3004 F   0  0  0  0  0  0  0  0  0  0  0  0
   -7.2768    6.2928   28.1540 F   0  0  0  0  0  0  0  0  0  0  0  0
   -7.1876    4.7097   29.3173 F   0  0  0  0  0  0  0  0  0  0  0  0
   -5.1899    1.6811   27.7642 C   0  0  0  0  0  0  0  0  0  0  0  0
   -5.3637    0.8372   28.7610 C   0  0  0  0  0  0  0  0  0  0  0  0
   -4.5008   -0.1566   28.9857 C   0  0  0  0  0  0  0  0  0  0  0  0
   -4.6756   -1.1433   30.0648 C   0  0  0  0  0  0  0  0  0  0  0  0
   -3.8148   -1.7901   30.6052 C   0  0  0  0  0  0  0  0  0  0  0  0
   -2.5246   -1.9122   30.0054 C   0  0  0  0  0  0  0  0  0  0  0  0
   -3.0883   -0.1568   28.6778 C   0  0  0  0  0  0  0  0  0  0  0  0
   -2.1595   -0.9581   29.1145 C   0  0  0  0  0  0  0  0  0  0  0  0
  1  2  2  3
  2  3  1  0
  1  4  1  0
  3  5  2  3
  5  6  1  0
  6  7  2  3
  7  8  1  0
  7  9  1  0
  1 10  1  0
  4 11  1  0
  4 12  1  0
  8 13  1  0
 13 14  2  3
 14 15  1  0
 15 16  2  0
 16 17  1  0
 17 18  2  0
 18 20  1  0
 20 19  2  0
 19 15  1  0
M  END
$$$$
