No_8900-complexes_sdf/6BKW-FPZ/2024-09-17-14-21-01/
     RDKit          3D

 16 18  0  0  0  0  0  0  0  0999 V2000
   -7.9040    3.9820   27.1177 C   0  0  0  0  0  0  0  0  0  0  0  0
   -9.0711    4.3164   27.0630 C   0  0  0  0  0  0  0  0  0  0  0  0
   -9.8698    3.9665   25.9494 C   0  0  0  0  0  0  0  0  0  0  0  0
   -7.4046    2.7946   26.4568 C   0  0  0  0  0  0  0  0  0  0  0  0
   -8.3659    2.1310   25.6816 C   0  0  0  0  0  0  0  0  0  0  0  0
   -9.5390    2.7825   25.4030 C   0  0  0  0  0  0  0  0  0  0  0  0
   -6.9809    4.5459   28.0623 N   0  0  0  0  0  0  0  0  0  0  0  0
   -7.5505    5.7156   28.5573 C   0  0  0  0  0  0  0  0  0  0  0  0
   -9.2883    5.7080   27.5605 C   0  0  0  0  0  0  0  0  0  0  0  0
   -8.5276    6.2493   28.4594 N   0  0  0  0  0  0  0  0  0  0  0  0
  -10.4565    2.1357   24.4195 C   0  0  0  0  0  0  0  0  0  0  0  0
  -10.0852    1.3750   23.4937 C   0  0  0  0  0  0  0  0  0  0  0  0
  -10.9219    0.7507   22.4888 C   0  0  0  0  0  0  0  0  0  0  0  0
  -12.2556    1.1073   22.5382 C   0  0  0  0  0  0  0  0  0  0  0  0
  -11.8940    2.4486   24.3645 C   0  0  0  0  0  0  0  0  0  0  0  0
  -12.7151    1.9533   23.4772 C   0  0  0  0  0  0  0  0  0  0  0  0
  6 11  1  0
 11 12  2  0
 12 13  1  0
 13 14  2  0
 14 16  1  0
 16 15  2  0
 15 11  1  0
  2  3  2  0
  3  6  1  0
  6  5  2  0
  5  4  1  0
  4  1  2  0
  1  2  1  0
  2  9  1  0
  9 10  2  0
 10  8  1  0
  8  7  2  0
  7  1  1  0
M  END
$$$$
