No_8564-complexes_sdf/6BKW-FPZ/2024-09-17-14-21-01/
     RDKit          3D

 14 15  0  0  0  0  0  0  0  0999 V2000
   -7.9040    3.9820   27.1177 C   0  0  0  0  0  0  0  0  0  0  0  0
   -8.2057    2.8231   26.8733 C   0  0  0  0  0  0  0  0  0  0  0  0
   -8.7695    5.0740   26.7916 C   0  0  0  0  0  0  0  0  0  0  0  0
   -9.9618    4.7598   26.1630 C   0  0  0  0  0  0  0  0  0  0  0  0
   -9.4200    2.4524   26.2849 C   0  0  0  0  0  0  0  0  0  0  0  0
  -10.2590    3.4815   25.9250 C   0  0  0  0  0  0  0  0  0  0  0  0
   -8.6094    6.4941   27.0911 C   0  0  0  0  0  0  0  0  0  0  0  0
   -7.8959    7.4951   26.8579 N   0  0  0  0  0  0  0  0  0  0  0  0
   -7.2472    1.6887   27.2679 C   0  0  0  0  0  0  0  0  0  0  0  0
   -6.0994    2.0155   27.8389 N   0  0  0  0  0  0  0  0  0  0  0  0
   -7.5951    0.3386   27.2465 C   0  0  0  0  0  0  0  0  0  0  0  0
   -5.1907    1.0257   28.2066 C   0  0  0  0  0  0  0  0  0  0  0  0
   -6.7371   -0.6320   27.7335 C   0  0  0  0  0  0  0  0  0  0  0  0
   -5.4940   -0.2395   28.2567 C   0  0  0  0  0  0  0  0  0  0  0  0
  3  7  1  0
  7  8  3  0
  2  9  1  0
  9 10  2  0
 10 12  1  0
 12 14  2  0
 14 13  1  0
 13 11  2  0
 11  9  1  0
  1  2  2  0
  2  5  1  0
  5  6  2  0
  6  4  1  0
  4  3  2  0
  3  1  1  0
M  END
$$$$
