No_8914-complexes_sdf/6BKW-FPZ/2024-09-17-14-21-01/
     RDKit          3D

 12 12  0  0  0  0  0  0  0  0999 V2000
   -7.7129    4.2099   27.0854 C   0  0  0  0  0  0  0  0  0  0  0  0
   -8.9133    4.4736   27.0998 C   0  0  0  0  0  0  0  0  0  0  0  0
   -9.7135    3.9633   26.0300 C   0  0  0  0  0  0  0  0  0  0  0  0
   -6.8420    4.9760   28.0851 C   0  0  0  0  0  0  0  0  0  0  0  0
  -10.9164    3.4776   26.1172 C   0  0  0  0  0  0  0  0  0  0  0  0
  -11.5453    3.0000   24.9938 C   0  0  0  0  0  0  0  0  0  0  0  0
  -10.9504    3.1415   23.7195 C   0  0  0  0  0  0  0  0  0  0  0  0
  -11.5866    2.5696   22.6270 C   0  0  0  0  0  0  0  0  0  0  0  0
   -7.3368    5.8386   28.6667 N   0  0  0  0  0  0  0  0  0  0  0  0
   -9.1645    5.6826   27.8433 C   0  0  0  0  0  0  0  0  0  0  0  0
   -8.4568    6.3291   28.6138 N   0  0  0  0  0  0  0  0  0  0  0  0
  -12.7854    2.0060   22.7271 C   0  0  0  0  0  0  0  0  0  0  0  0
  2  3  1  0
  3  5  1  0
  5  6  2  3
  6  7  1  0
  7  8  2  3
  8 12  1  0
  1  2  2  0
  2 10  1  0
 10 11  2  0
 11  9  1  0
  9  4  2  0
  4  1  1  0
M  END
$$$$
