No_83-complexes_sdf/6BKW-FPZ/2024-09-17-14-21-01/
     RDKit          3D

 23 25  0  0  0  0  0  0  0  0999 V2000
   -7.9040    3.9820   27.1177 C   0  0  0  0  0  0  0  0  0  0  0  0
   -7.8663    4.8694   27.9238 C   0  0  0  0  0  0  0  0  0  0  0  0
   -7.4547    2.7080   27.4594 C   0  0  0  0  0  0  0  0  0  0  0  0
   -7.9337    1.5946   26.8372 C   0  0  0  0  0  0  0  0  0  0  0  0
   -8.9032    1.7881   25.8510 C   0  0  0  0  0  0  0  0  0  0  0  0
   -9.3649    0.5983   25.1884 C   0  0  0  0  0  0  0  0  0  0  0  0
   -8.9636    3.9443   26.1629 C   0  0  0  0  0  0  0  0  0  0  0  0
   -9.3683    2.9288   25.4866 C   0  0  0  0  0  0  0  0  0  0  0  0
   -7.0948    4.9822   28.9698 N   0  0  0  0  0  0  0  0  0  0  0  0
   -8.3888    6.1798   27.5720 N   0  0  0  0  0  0  0  0  0  0  0  0
   -9.4998   -0.5255   25.6095 N   0  0  0  0  0  0  0  0  0  0  0  0
   -9.7002    0.6885   23.7193 C   0  0  0  0  0  0  0  0  0  0  0  0
   -9.3666   -0.8087   26.9476 C   0  0  0  0  0  0  0  0  0  0  0  0
   -8.7297   -2.0052   27.2932 C   0  0  0  0  0  0  0  0  0  0  0  0
   -8.6149   -2.3135   28.7051 C   0  0  0  0  0  0  0  0  0  0  0  0
  -10.3917   -0.2154   27.7629 C   0  0  0  0  0  0  0  0  0  0  0  0
   -9.7880   -2.1217   29.5207 C   0  0  0  0  0  0  0  0  0  0  0  0
  -10.6091   -0.9220   29.0970 C   0  0  0  0  0  0  0  0  0  0  0  0
   -8.7793    0.2860   22.7801 C   0  0  0  0  0  0  0  0  0  0  0  0
   -9.1071    0.4404   21.3819 C   0  0  0  0  0  0  0  0  0  0  0  0
  -10.3186    1.0868   21.0208 C   0  0  0  0  0  0  0  0  0  0  0  0
  -10.8174    1.3717   23.1670 C   0  0  0  0  0  0  0  0  0  0  0  0
  -11.1028    1.5461   21.9399 C   0  0  0  0  0  0  0  0  0  0  0  0
  1  2  1  0
  5  6  1  0
  2  9  1  0
  2 10  2  0
  6 11  2  3
  6 12  1  0
 11 13  1  0
 13 14  2  0
 14 15  1  0
 15 17  2  0
 17 18  1  0
 18 16  2  0
 16 13  1  0
 12 19  2  0
 19 20  1  0
 20 21  2  0
 21 23  1  0
 23 22  2  0
 22 12  1  0
  1  3  2  0
  3  4  1  0
  4  5  2  0
  5  8  1  0
  8  7  2  0
  7  1  1  0
M  END
$$$$
