No_8189-complexes_sdf/6BKW-FPZ/2024-09-17-14-21-01/
     RDKit          3D

 17 20  0  0  0  0  0  0  0  0999 V2000
   -7.9040    3.9820   27.1177 C   0  0  0  0  0  0  0  0  0  0  0  0
   -7.8663    4.8694   27.9238 C   0  0  0  0  0  0  0  0  0  0  0  0
   -9.0501    3.8017   26.2617 C   0  0  0  0  0  0  0  0  0  0  0  0
  -10.0189    4.7608   26.3707 C   0  0  0  0  0  0  0  0  0  0  0  0
   -8.6770    5.9780   27.9222 C   0  0  0  0  0  0  0  0  0  0  0  0
   -9.8040    5.8752   27.0958 C   0  0  0  0  0  0  0  0  0  0  0  0
   -9.1484    2.6214   25.4213 C   0  0  0  0  0  0  0  0  0  0  0  0
   -8.6637    1.4189   25.8658 C   0  0  0  0  0  0  0  0  0  0  0  0
   -8.1555    1.3279   27.2397 C   0  0  0  0  0  0  0  0  0  0  0  0
   -7.3787    2.5711   27.6929 C   0  0  0  0  0  0  0  0  0  0  0  0
   -9.8388    2.7328   24.1871 C   0  0  0  0  0  0  0  0  0  0  0  0
  -10.4801    3.8955   23.7865 C   0  0  0  0  0  0  0  0  0  0  0  0
  -10.6884    4.8658   25.0738 N   0  0  0  0  0  0  0  0  0  0  0  0
  -11.2583    4.1992   22.7585 C   0  0  0  0  0  0  0  0  0  0  0  0
   -9.8819    1.7527   23.2007 C   0  0  0  0  0  0  0  0  0  0  0  0
  -10.4298    2.0020   21.9701 C   0  0  0  0  0  0  0  0  0  0  0  0
  -11.1555    3.2042   21.7411 C   0  0  0  0  0  0  0  0  0  0  0  0
  7 11  1  0
  4 13  1  0
 12 13  1  0
 11 12  2  0
 12 14  1  0
 14 17  2  0
 17 16  1  0
 16 15  2  0
 15 11  1  0
  3  7  1  0
  7  8  2  0
  8  9  1  0
  9 10  2  0
 10  1  1  0
  1  2  2  0
  2  5  1  0
  5  6  2  0
  6  4  1  0
  4  3  2  0
  3  1  1  0
M  END
$$$$
