No_8686-complexes_sdf/6BKW-FPZ/2024-09-17-14-21-01/
     RDKit          3D

 26 29  0  0  0  0  0  0  0  0999 V2000
   -7.9040    3.9820   27.1177 C   0  0  0  0  0  0  0  0  0  0  0  0
   -7.8663    4.8694   27.9238 C   0  0  0  0  0  0  0  0  0  0  0  0
   -7.4547    2.7080   27.4594 C   0  0  0  0  0  0  0  0  0  0  0  0
   -7.9337    1.5946   26.8372 C   0  0  0  0  0  0  0  0  0  0  0  0
   -8.9032    1.7881   25.8510 C   0  0  0  0  0  0  0  0  0  0  0  0
   -9.3787    2.9871   25.5530 C   0  0  0  0  0  0  0  0  0  0  0  0
   -8.9781    4.0300   26.2200 C   0  0  0  0  0  0  0  0  0  0  0  0
   -8.0013    6.0716   27.8481 N   0  0  0  0  0  0  0  0  0  0  0  0
  -10.4303    2.9197   24.4871 C   0  0  0  0  0  0  0  0  0  0  0  0
  -11.1009    4.1079   24.1897 C   0  0  0  0  0  0  0  0  0  0  0  0
  -10.5854    1.9080   23.5988 C   0  0  0  0  0  0  0  0  0  0  0  0
   -9.0328    6.6478   27.1545 C   0  0  0  0  0  0  0  0  0  0  0  0
  -12.0166    4.2667   23.1792 C   0  0  0  0  0  0  0  0  0  0  0  0
  -11.4723    2.0000   22.5105 C   0  0  0  0  0  0  0  0  0  0  0  0
  -12.1919    3.1957   22.3029 C   0  0  0  0  0  0  0  0  0  0  0  0
   -9.5286    5.3669   25.9581 C   0  0  0  0  0  0  0  0  0  0  0  0
   -7.3044    0.2481   27.0643 C   0  0  1  0  0  0  0  0  0  0  0  0
   -6.0596    0.1219   27.6080 C   0  0  0  0  0  0  0  0  0  0  0  0
   -5.5566   -1.0117   28.1465 C   0  0  0  0  0  0  0  0  0  0  0  0
   -4.2822   -1.0209   28.7742 C   0  0  0  0  0  0  0  0  0  0  0  0
   -3.5100    0.1645   28.8205 C   0  0  0  0  0  0  0  0  0  0  0  0
   -4.0592    1.3323   28.3352 C   0  0  0  0  0  0  0  0  0  0  0  0
   -5.2564    1.3414   27.7822 C   0  0  0  0  0  0  0  0  0  0  0  0
   -8.0791   -0.9013   26.7627 C   0  0  0  0  0  0  0  0  0  0  0  0
   -8.7460   -1.4518   27.3945 N   0  0  0  0  0  0  0  0  0  0  0  0
   -9.5424   -2.5279   27.0801 C   0  0  0  0  0  0  0  0  0  0  0  0
  6  9  1  0
 17  4  1  1
 17 18  1  0
 17 24  1  0
 24 25  2  3
 25 26  1  0
  1  2  2  0
  2  8  1  0
  8 12  2  0
 12 16  1  0
 16  7  2  0
 18 19  2  0
 19 20  1  0
 20 21  2  0
 21 22  1  0
 22 23  2  0
 23 18  1  0
  9 10  2  0
 10 13  1  0
 13 15  2  0
 15 14  1  0
 14 11  2  0
 11  9  1  0
  1  3  1  0
  3  4  2  0
  4  5  1  0
  5  6  2  0
  6  7  1  0
  7  1  1  0
M  END
$$$$
