No_8049-complexes_sdf/6BKW-FPZ/2024-09-17-14-21-01/
     RDKit          3D

 25 27  0  0  0  0  0  0  0  0999 V2000
   -7.7129    4.2099   27.0854 C   0  0  0  0  0  0  0  0  0  0  0  0
   -8.9133    4.4736   27.0998 C   0  0  2  0  0  0  0  0  0  0  0  0
   -9.7135    3.9633   26.0300 C   0  0  0  0  0  0  0  0  0  0  0  0
   -6.8655    4.8824   28.1822 C   0  0  0  0  0  0  0  0  0  0  0  0
   -9.2221    2.8459   25.3619 C   0  0  0  0  0  0  0  0  0  0  0  0
  -10.0341    2.3269   24.3143 C   0  0  0  0  0  0  0  0  0  0  0  0
  -10.9174    3.1230   23.6221 C   0  0  0  0  0  0  0  0  0  0  0  0
  -11.3105    4.3671   24.2251 C   0  0  0  0  0  0  0  0  0  0  0  0
  -10.6859    4.8226   25.3890 C   0  0  0  0  0  0  0  0  0  0  0  0
   -7.6980    5.7277   28.8441 N   0  0  0  0  0  0  0  0  0  0  0  0
   -9.1105    5.5383   28.0574 C   0  0  0  0  0  0  0  0  0  0  0  0
  -11.6409    2.6853   22.4526 C   0  0  0  0  0  0  0  0  0  0  0  0
  -11.1047    2.9747   21.2816 C   0  0  0  0  0  0  0  0  0  0  0  0
   -9.7728    3.5742   21.1956 C   0  0  0  0  0  0  0  0  0  0  0  0
  -11.8037    2.6214   19.9862 C   0  0  0  0  0  0  0  0  0  0  0  0
   -9.5581    1.0623   23.7095 C   0  0  0  0  0  0  0  0  0  0  0  0
  -10.0873   -0.0706   24.3961 C   0  0  0  0  0  0  0  0  0  0  0  0
   -9.7971   -1.2525   23.8875 C   0  0  0  0  0  0  0  0  0  0  0  0
   -8.9809   -1.3913   22.7352 C   0  0  0  0  0  0  0  0  0  0  0  0
   -8.5151   -0.2507   22.0388 C   0  0  0  0  0  0  0  0  0  0  0  0
   -8.8249    0.9769   22.5768 C   0  0  0  0  0  0  0  0  0  0  0  0
  -12.8266    1.9799   22.6164 C   0  0  0  0  0  0  0  0  0  0  0  0
  -13.1794    1.4199   21.6297 F   0  0  0  0  0  0  0  0  0  0  0  0
  -13.7665    2.8787   23.0229 F   0  0  0  0  0  0  0  0  0  0  0  0
  -12.7607    1.0614   23.6519 F   0  0  0  0  0  0  0  0  0  0  0  0
  1  2  1  0
  1  4  1  0
  4 10  2  0
  2 11  1  0
 10 11  1  0
  7 12  1  0
 12 13  2  3
 13 14  1  0
 13 15  1  0
  6 16  1  0
 12 22  1  0
 22 23  1  0
 22 24  1  0
 22 25  1  0
  2  3  1  6
  3  5  2  0
  5  6  1  0
  6  7  2  0
  7  8  1  0
  8  9  2  0
  9  3  1  0
 16 17  2  0
 17 18  1  0
 18 19  2  0
 19 20  1  0
 20 21  2  0
 21 16  1  0
M  END
$$$$
