No_8758-complexes_sdf/6BKW-FPZ/2024-09-17-14-21-01/
     RDKit          3D

 38 43  0  0  0  0  0  0  0  0999 V2000
   -7.7129    4.2099   27.0854 C   0  0  0  0  0  0  0  0  0  0  0  0
   -8.2112    3.0637   26.9225 C   0  0  0  0  0  0  0  0  0  0  0  0
   -7.5138    1.9223   27.4249 C   0  0  0  0  0  0  0  0  0  0  0  0
   -8.5309    5.4147   26.8151 C   0  0  0  0  0  0  0  0  0  0  0  0
   -9.6817    5.2393   26.1100 C   0  0  0  0  0  0  0  0  0  0  0  0
  -10.1032    3.9957   25.8534 C   0  0  0  0  0  0  0  0  0  0  0  0
   -9.4034    2.8430   26.2573 C   0  0  0  0  0  0  0  0  0  0  0  0
   -6.8895    0.9933   26.6781 C   0  0  0  0  0  0  0  0  0  0  0  0
   -6.0179    0.0873   27.2762 C   0  0  0  0  0  0  0  0  0  0  0  0
   -6.3613   -1.1849   27.4548 C   0  0  0  0  0  0  0  0  0  0  0  0
   -7.8084    6.6967   27.0728 C   0  0  0  0  0  0  0  0  0  0  0  0
   -5.5721   -1.9776   28.3408 C   0  0  0  0  0  0  0  0  0  0  0  0
   -4.3528   -1.4949   28.8651 C   0  0  0  0  0  0  0  0  0  0  0  0
   -4.0184   -0.1361   28.6302 C   0  0  0  0  0  0  0  0  0  0  0  0
   -4.8653    0.6825   27.9395 C   0  0  0  0  0  0  0  0  0  0  0  0
   -4.6131    1.9687   27.8152 O   0  0  0  0  0  0  0  0  0  0  0  0
  -11.3606    3.8436   25.0580 C   0  0  0  0  0  0  0  0  0  0  0  0
  -11.3562    4.0845   23.8095 N   0  0  0  0  0  0  0  0  0  0  0  0
  -11.0521    3.3755   22.8276 C   0  0  0  0  0  0  0  0  0  0  0  0
  -10.8717    3.9915   21.5123 C   0  0  0  0  0  0  0  0  0  0  0  0
  -11.8145    2.1909   22.5952 C   0  0  0  0  0  0  0  0  0  0  0  0
  -11.5423    1.3817   21.5390 C   0  0  0  0  0  0  0  0  0  0  0  0
  -11.3169    1.9779   20.2311 C   0  0  0  0  0  0  0  0  0  0  0  0
  -10.5942    3.2850   20.3291 C   0  0  0  0  0  0  0  0  0  0  0  0
  -12.4155    3.4206   25.6287 O   0  0  0  0  0  0  0  0  0  0  0  0
   -8.5199    7.6848   26.7545 F   0  0  0  0  0  0  0  0  0  0  0  0
   -7.6712    6.7142   28.5041 F   0  0  0  0  0  0  0  0  0  0  0  0
   -3.4704   -2.3072   29.7269 C   0  0  0  0  0  0  0  0  0  0  0  0
   -2.2838   -2.0318   29.7200 C   0  0  0  0  0  0  0  0  0  0  0  0
   -1.7642   -0.6682   29.5307 C   0  0  0  0  0  0  0  0  0  0  0  0
   -2.6933    0.2810   28.9293 C   0  0  0  0  0  0  0  0  0  0  0  0
   -5.9977   -3.3616   28.6218 C   0  0  0  0  0  0  0  0  0  0  0  0
   -7.0859   -3.7075   28.2078 C   0  0  0  0  0  0  0  0  0  0  0  0
   -7.6292   -4.9449   28.5401 C   0  0  0  0  0  0  0  0  0  0  0  0
   -6.8473   -5.7645   29.3226 C   0  0  0  0  0  0  0  0  0  0  0  0
   -5.6593   -5.3887   29.7916 C   0  0  0  0  0  0  0  0  0  0  0  0
   -5.1929   -4.1706   29.4952 C   0  0  0  0  0  0  0  0  0  0  0  0
   -3.9316   -3.6774   29.9809 C   0  0  0  0  0  0  0  0  0  0  0  0
  2  3  1  0
  3  8  1  0
  8  9  1  0
  4 11  1  0
 15 16  1  0
  6 17  1  0
 17 18  1  0
 18 19  1  0
 17 25  2  0
 11 26  1  0
 11 27  1  0
 12 32  1  0
 28 38  1  0
 37 38  1  0
 14 31  1  0
 31 30  2  0
 30 29  1  0
 29 28  2  0
 28 13  1  0
 32 33  2  0
 33 34  1  0
 34 35  2  0
 35 36  1  0
 36 37  2  0
 37 32  1  0
  9 10  2  0
 10 12  1  0
 12 13  2  0
 13 14  1  0
 14 15  2  0
 15  9  1  0
  1  2  2  0
  2  7  1  0
  7  6  2  0
  6  5  1  0
  5  4  2  0
  4  1  1  0
 19 20  2  0
 20 24  1  0
 24 23  2  0
 23 22  1  0
 22 21  2  0
 21 19  1  0
M  END
$$$$
