No_8389-complexes_sdf/6BKW-FPZ/2024-09-17-14-21-01/
     RDKit          3D

 31 33  0  0  0  0  0  0  0  0999 V2000
   -7.7129    4.2099   27.0854 C   0  0  0  0  0  0  0  0  0  0  0  0
   -8.2112    3.0637   26.9225 C   0  0  0  0  0  0  0  0  0  0  0  0
   -8.5108    5.3904   26.9436 C   0  0  0  0  0  0  0  0  0  0  0  0
   -9.7256    5.1955   26.3518 C   0  0  0  0  0  0  0  0  0  0  0  0
   -9.4995    2.8258   26.4878 C   0  0  0  0  0  0  0  0  0  0  0  0
  -10.2542    3.9691   26.2055 C   0  0  0  0  0  0  0  0  0  0  0  0
   -7.8138    6.9227   27.2348 Cl  0  0  0  0  0  0  0  0  0  0  0  0
   -7.2132    1.6413   27.3261 S   0  0  0  0  0  0  0  0  0  0  0  0
   -7.9663    0.6698   27.7383 O   0  0  0  0  0  0  0  0  0  0  0  0
   -6.2514    2.0757   28.3811 O   0  0  0  0  0  0  0  0  0  0  0  0
   -6.4533    1.2512   26.0055 N   0  0  0  0  0  0  0  0  0  0  0  0
  -11.9672    3.8193   25.4996 Br  0  0  0  0  0  0  0  0  0  0  0  0
   -5.6503    0.2163   26.1403 C   0  0  0  0  0  0  0  0  0  0  0  0
   -4.5608    0.2383   27.0204 C   0  0  2  0  0  0  0  0  0  0  0  0
   -3.5225   -0.7354   26.9118 C   0  0  0  0  0  0  0  0  0  0  0  0
   -3.6517   -1.8363   27.7204 C   0  0  1  0  0  0  0  0  0  0  0  0
   -4.4840   -1.9416   28.6370 C   0  0  0  0  0  0  0  0  0  0  0  0
   -4.8375   -3.0178   29.3479 C   0  0  0  0  0  0  0  0  0  0  0  0
   -5.7679   -2.9500   30.4042 C   0  0  0  0  0  0  0  0  0  0  0  0
   -6.3228   -1.6949   30.7926 C   0  0  0  0  0  0  0  0  0  0  0  0
   -5.8007   -0.5917   30.1198 C   0  0  0  0  0  0  0  0  0  0  0  0
   -4.9760   -0.6322   29.1577 C   0  0  0  0  0  0  0  0  0  0  0  0
   -4.6558    0.7527   28.2207 O   0  0  0  0  0  0  0  0  0  0  0  0
   -2.9055   -3.0614   27.2333 C   0  0  2  0  0  0  0  0  0  0  0  0
   -1.6459   -3.0053   27.5810 C   0  0  0  0  0  0  0  0  0  0  0  0
   -3.4596   -3.9438   26.3669 C   0  0  0  0  0  0  0  0  0  0  0  0
   -4.5984   -3.9452   25.8501 C   0  0  0  0  0  0  0  0  0  0  0  0
   -5.2443   -4.4647   25.2436 C   0  0  0  0  0  0  0  0  0  0  0  0
   -6.6571   -4.1737   24.7047 C   0  0  0  0  0  0  0  0  0  0  0  0
   -7.1537   -3.0411   25.2621 C   0  0  0  0  0  0  0  0  0  0  0  0
   -6.5262   -2.3105   26.2391 C   0  0  0  0  0  0  0  0  0  0  0  0
  3  7  1  0
  2  8  1  0
  8  9  2  0
  8 10  2  0
  8 11  1  0
  6 12  1  0
 11 13  1  0
 14 13  1  1
 14 15  1  0
 16 15  1  6
 16 17  1  0
 14 23  1  0
 22 23  1  0
 16 24  1  0
 24 25  1  6
 24 26  1  0
 26 27  2  3
 27 28  1  0
 28 29  2  3
 29 30  1  0
 30 31  2  0
 17 18  2  0
 18 19  1  0
 19 20  2  0
 20 21  1  0
 21 22  2  0
 22 17  1  0
  1  2  2  0
  2  5  1  0
  5  6  2  0
  6  4  1  0
  4  3  2  0
  3  1  1  0
M  END
$$$$
