No_8669-complexes_sdf/6BKW-FPZ/2024-09-17-14-21-01/
     RDKit          3D

 27 30  0  0  0  0  0  0  0  0999 V2000
   -7.7129    4.2099   27.0854 C   0  0  0  0  0  0  0  0  0  0  0  0
   -7.7814    5.1722   27.8972 C   0  0  0  0  0  0  0  0  0  0  0  0
   -8.8998    3.8713   26.3707 C   0  0  0  0  0  0  0  0  0  0  0  0
   -8.9563    2.6796   25.5490 C   0  0  0  0  0  0  0  0  0  0  0  0
   -8.8131    6.1334   27.9344 C   0  0  0  0  0  0  0  0  0  0  0  0
   -9.9804    5.8121   27.1929 C   0  0  0  0  0  0  0  0  0  0  0  0
   -9.9861    4.6836   26.4532 C   0  0  0  0  0  0  0  0  0  0  0  0
   -8.3357    1.4961   26.0703 C   0  0  0  0  0  0  0  0  0  0  0  0
   -8.3882    0.2953   25.3902 C   0  0  0  0  0  0  0  0  0  0  0  0
   -9.0085    0.3271   24.1355 C   0  0  0  0  0  0  0  0  0  0  0  0
   -9.5936    1.4698   23.6030 C   0  0  0  0  0  0  0  0  0  0  0  0
   -9.5290    2.6254   24.3242 C   0  0  0  0  0  0  0  0  0  0  0  0
  -10.2086    1.4433   22.2854 C   0  0  0  0  0  0  0  0  0  0  0  0
  -10.3909    2.5835   21.6612 C   0  0  0  0  0  0  0  0  0  0  0  0
  -11.0077    2.6309   20.4201 C   0  0  0  0  0  0  0  0  0  0  0  0
  -11.3632    1.4620   19.7509 C   0  0  0  0  0  0  0  0  0  0  0  0
  -11.1006    0.2391   20.3915 C   0  0  0  0  0  0  0  0  0  0  0  0
  -10.5339    0.2408   21.6430 C   0  0  0  0  0  0  0  0  0  0  0  0
  -11.4482   -0.8767   19.7421 O   0  0  0  0  0  0  0  0  0  0  0  0
  -11.2746   -2.0035   20.1634 C   0  0  1  0  0  0  0  0  0  0  0  0
  -12.0518   -2.6949   20.7489 C   0  0  0  0  0  0  0  0  0  0  0  0
  -13.3165   -2.4054   20.8124 C   0  0  0  0  0  0  0  0  0  0  0  0
  -14.1948   -3.0613   21.7234 C   0  0  0  0  0  0  0  0  0  0  0  0
  -11.7084   -3.8456   21.5621 C   0  0  0  0  0  0  0  0  0  0  0  0
  -12.5129   -4.5441   22.3870 C   0  0  0  0  0  0  0  0  0  0  0  0
  -13.8520   -4.1287   22.4343 C   0  0  0  0  0  0  0  0  0  0  0  0
  -10.3170   -2.8770   19.1543 C   0  0  0  0  0  0  0  0  0  0  0  0
  3  4  1  0
 11 13  1  0
 17 19  1  0
 19 20  1  0
 20 21  1  0
 20 27  1  6
  4  8  2  0
  8  9  1  0
  9 10  2  0
 10 11  1  0
 11 12  2  0
 12  4  1  0
 13 14  2  0
 14 15  1  0
 15 16  2  0
 16 17  1  0
 17 18  2  0
 18 13  1  0
 21 22  2  0
 22 23  1  0
 23 26  2  0
 26 25  1  0
 25 24  2  0
 24 21  1  0
  1  2  2  0
  2  5  1  0
  5  6  2  0
  6  7  1  0
  7  3  2  0
  3  1  1  0
M  END
$$$$
