No_8277-complexes_sdf/6BKW-FPZ/2024-09-17-14-21-01/
     RDKit          3D

 12 13  0  0  0  0  0  0  0  0999 V2000
   -7.7129    4.2099   27.0854 C   0  0  0  0  0  0  0  0  0  0  0  0
   -7.7814    5.1722   27.8972 C   0  0  0  0  0  0  0  0  0  0  0  0
   -7.2983    2.9533   27.5684 C   0  0  0  0  0  0  0  0  0  0  0  0
   -7.6908    1.8111   26.9553 C   0  0  0  0  0  0  0  0  0  0  0  0
   -8.6533    1.9165   25.9430 C   0  0  0  0  0  0  0  0  0  0  0  0
   -9.2376    3.0581   25.6387 C   0  0  0  0  0  0  0  0  0  0  0  0
   -8.8901    4.1760   26.2867 C   0  0  0  0  0  0  0  0  0  0  0  0
   -8.3432    6.4292   27.5920 N   0  0  0  0  0  0  0  0  0  0  0  0
  -10.2443    3.1171   24.5317 C   0  0  0  0  0  0  0  0  0  0  0  0
   -9.4406    5.4496   25.9646 C   0  0  0  0  0  0  0  0  0  0  0  0
   -9.2182    6.5847   26.6234 C   0  0  0  0  0  0  0  0  0  0  0  0
  -11.2521    3.9736   24.6035 C   0  0  0  0  0  0  0  0  0  0  0  0
  1  3  1  0
  3  4  1  0
  4  5  1  0
  5  6  1  0
  6  7  1  0
  6  9  1  0
  9 12  2  0
  1  2  2  0
  2  8  1  0
  8 11  2  0
 11 10  1  0
 10  7  2  0
  7  1  1  0
M  END
$$$$
