No_859-complexes_sdf/6BKW-FPZ/2024-09-17-14-21-01/
     RDKit          3D

 17 19  0  0  0  0  0  0  0  0999 V2000
   -7.2496    3.8871   27.4508 C   0  0  0  0  0  0  0  0  0  0  0  0
   -7.6161    2.7143   27.1523 C   0  0  0  0  0  0  0  0  0  0  0  0
   -8.8302    2.4659   26.5056 C   0  0  0  0  0  0  0  0  0  0  0  0
   -8.1584    5.0090   27.3234 C   0  0  0  0  0  0  0  0  0  0  0  0
   -9.3788    4.7965   26.7695 C   0  0  0  0  0  0  0  0  0  0  0  0
   -9.7028    3.5649   26.3276 C   0  0  0  0  0  0  0  0  0  0  0  0
   -6.9735    1.5087   27.2949 N   0  0  0  0  0  0  0  0  0  0  0  0
   -7.4704    0.4191   26.8449 C   0  0  0  0  0  0  0  0  0  0  0  0
   -8.7941    0.9996   26.3928 C   0  0  0  0  0  0  0  0  0  0  0  0
   -7.7401    6.3819   27.7901 C   0  0  0  0  0  0  0  0  0  0  0  0
   -7.1129   -0.8498   26.8851 C   0  0  0  0  0  0  0  0  0  0  0  0
   -8.4626    7.4079   27.2448 N   0  0  0  0  0  0  0  0  0  0  0  0
   -7.3419   -1.6252   25.9411 C   0  0  0  0  0  0  0  0  0  0  0  0
   -6.8642   -3.0326   25.8823 C   0  0  0  0  0  0  0  0  0  0  0  0
   -6.9888   -1.5759   28.1517 C   0  0  0  0  0  0  0  0  0  0  0  0
   -6.5335   -2.8335   28.3148 C   0  0  0  0  0  0  0  0  0  0  0  0
   -6.5479   -3.5840   27.0996 C   0  0  0  0  0  0  0  0  0  0  0  0
  2  7  1  0
  7  8  2  0
  3  9  1  0
  8  9  1  0
  4 10  1  0
  8 11  1  0
 10 12  1  0
  1  2  2  0
  2  3  1  0
  3  6  2  0
  6  5  1  0
  5  4  2  0
  4  1  1  0
 11 13  2  0
 13 14  1  0
 14 17  2  0
 17 16  1  0
 16 15  2  0
 15 11  1  0
M  END
$$$$
