No_8079-complexes_sdf/6BKW-FPZ/2024-09-17-14-21-01/
     RDKit          3D

 34 37  0  0  0  0  0  0  0  0999 V2000
   -7.9040    3.9820   27.1177 C   0  0  0  0  0  0  0  0  0  0  0  0
   -9.0711    4.3164   27.0630 C   0  0  0  0  0  0  0  0  0  0  0  0
   -9.5294    5.4517   27.7215 C   0  0  0  0  0  0  0  0  0  0  0  0
   -6.9328    4.7309   27.8881 C   0  0  0  0  0  0  0  0  0  0  0  0
   -7.3377    5.8421   28.5537 C   0  0  0  0  0  0  0  0  0  0  0  0
   -8.6411    6.2609   28.3972 C   0  0  0  0  0  0  0  0  0  0  0  0
  -10.1663    3.5968   26.3594 C   0  0  0  0  0  0  0  0  0  0  0  0
  -10.1938    3.8160   24.9810 C   0  0  0  0  0  0  0  0  0  0  0  0
  -10.9341    3.1326   24.0515 C   0  0  0  0  0  0  0  0  0  0  0  0
  -11.8461    2.2450   24.5637 C   0  0  0  0  0  0  0  0  0  0  0  0
  -11.0005    2.6522   26.8070 C   0  0  0  0  0  0  0  0  0  0  0  0
  -10.9946    2.3057   28.3041 C   0  0  0  0  0  0  0  0  0  0  0  0
  -11.8813    1.9518   25.9655 C   0  0  0  0  0  0  0  0  0  0  0  0
  -11.3453    3.2449   29.1574 C   0  0  0  0  0  0  0  0  0  0  0  0
  -11.7899    0.9507   28.4386 C   0  0  0  0  0  0  0  0  0  0  0  0
  -10.9051    3.5191   22.6545 C   0  0  0  0  0  0  0  0  0  0  0  0
  -12.1142    3.5526   22.0739 F   0  0  0  0  0  0  0  0  0  0  0  0
  -10.0734    2.7477   21.9217 F   0  0  0  0  0  0  0  0  0  0  0  0
  -10.4630    4.8175   22.4729 F   0  0  0  0  0  0  0  0  0  0  0  0
   -5.6770    4.2211   28.0871 O   0  0  0  0  0  0  0  0  0  0  0  0
  -11.0712   -0.1936   28.2170 C   0  0  0  0  0  0  0  0  0  0  0  0
  -11.6920   -1.4248   28.4577 C   0  0  0  0  0  0  0  0  0  0  0  0
  -13.0019   -1.4237   28.8965 C   0  0  0  0  0  0  0  0  0  0  0  0
  -13.6846   -0.2575   29.1382 C   0  0  0  0  0  0  0  0  0  0  0  0
  -13.0595    0.9604   28.9584 C   0  0  0  0  0  0  0  0  0  0  0  0
   -9.4377    1.9062   28.5240 C   0  0  0  0  0  0  0  0  0  0  0  0
  -10.9818   -2.7034   28.1865 C   0  0  0  0  0  0  0  0  0  0  0  0
  -11.3028   -3.4525   27.3623 C   0  0  0  0  0  0  0  0  0  0  0  0
  -12.4336   -3.1928   26.5086 C   0  0  0  0  0  0  0  0  0  0  0  0
  -12.4530   -3.1753   25.4824 C   0  0  0  0  0  0  0  0  0  0  0  0
  -13.6800   -2.9513   24.5996 C   0  0  0  0  0  0  0  0  0  0  0  0
  -14.8289   -2.6962   25.2869 C   0  0  0  0  0  0  0  0  0  0  0  0
  -14.8375   -2.7286   26.6266 C   0  0  0  0  0  0  0  0  0  0  0  0
  -13.7005   -2.9511   27.3229 C   0  0  0  0  0  0  0  0  0  0  0  0
  2  7  1  0
 11 12  1  0
 12 14  1  0
 12 15  1  0
  9 16  1  0
 16 17  1  0
 16 18  1  0
 16 19  1  0
  4 20  1  0
 12 26  1  0
 22 27  1  0
 27 28  2  3
 28 29  1  0
 29 30  2  0
 30 31  1  0
 31 32  2  0
 32 33  1  0
 33 34  2  0
 34 29  1  0
 15 21  2  0
 21 22  1  0
 22 23  2  0
 23 24  1  0
 24 25  2  0
 25 15  1  0
  1  2  2  0
  2  3  1  0
  3  6  2  0
  6  5  1  0
  5  4  2  0
  4  1  1  0
  7  8  2  0
  8  9  1  0
  9 10  2  0
 10 13  1  0
 13 11  2  0
 11  7  1  0
M  END
$$$$
