No_8834-complexes_sdf/6BKW-FPZ/2024-09-17-14-21-01/
     RDKit          3D

 26 29  0  0  0  0  0  0  0  0999 V2000
   -7.7129    4.2099   27.0854 C   0  0  0  0  0  0  0  0  0  0  0  0
   -7.7814    5.1722   27.8972 C   0  0  0  0  0  0  0  0  0  0  0  0
   -8.8776    3.8408   26.3416 C   0  0  0  0  0  0  0  0  0  0  0  0
   -8.9136    2.6330   25.5655 C   0  0  0  0  0  0  0  0  0  0  0  0
   -8.8361    6.1389   27.9032 C   0  0  0  0  0  0  0  0  0  0  0  0
   -9.9718    4.7048   26.3433 C   0  0  0  0  0  0  0  0  0  0  0  0
   -9.9205    5.8499   27.1013 C   0  0  0  0  0  0  0  0  0  0  0  0
   -8.2973    1.5704   26.1311 N   0  0  0  0  0  0  0  0  0  0  0  0
   -7.7627    1.5755   27.2967 C   0  0  0  0  0  0  0  0  0  0  0  0
   -7.0821    2.8763   27.6289 C   0  0  0  0  0  0  0  0  0  0  0  0
   -8.5096    0.2746   25.4421 C   0  0  2  0  0  0  0  0  0  0  0  0
   -9.7004   -0.2694   25.4811 C   0  0  0  0  0  0  0  0  0  0  0  0
   -9.9081   -1.3307   24.8950 C   0  0  0  0  0  0  0  0  0  0  0  0
   -7.4619   -0.6193   25.6532 C   0  0  0  0  0  0  0  0  0  0  0  0
   -7.5370   -1.8576   24.9853 C   0  0  2  0  0  0  0  0  0  0  0  0
   -6.4006   -2.7995   25.0719 C   0  0  0  0  0  0  0  0  0  0  0  0
   -8.2891   -1.8233   23.7859 C   0  0  0  0  0  0  0  0  0  0  0  0
  -11.3661   -1.6321   24.9947 C   0  0  0  0  0  0  0  0  0  0  0  0
   -9.2489   -2.1174   24.0931 C   0  0  0  0  0  0  0  0  0  0  0  0
  -11.9644   -2.5119   24.8035 C   0  0  0  0  0  0  0  0  0  0  0  0
  -13.3983   -2.7282   24.9630 C   0  0  0  0  0  0  0  0  0  0  0  0
  -14.1037   -1.6447   25.4219 C   0  0  0  0  0  0  0  0  0  0  0  0
  -13.5033   -0.4824   25.6899 C   0  0  0  0  0  0  0  0  0  0  0  0
  -12.1695   -0.3614   25.5512 C   0  0  0  0  0  0  0  0  0  0  0  0
   -6.5977   -3.8479   25.7465 C   0  0  0  0  0  0  0  0  0  0  0  0
   -5.4963   -4.7680   25.9561 C   0  0  0  0  0  0  0  0  0  0  0  0
  3  4  1  0
  4  8  1  0
  8  9  1  0
  1 10  1  0
  9 10  1  0
 11  8  1  1
 11 12  1  0
 12 13  2  0
 11 14  1  0
 15 14  1  6
 15 16  1  0
 15 17  1  0
 13 18  1  0
 13 19  1  0
 17 19  2  0
 16 25  2  3
 25 26  1  0
 18 20  2  0
 20 21  1  0
 21 22  2  0
 22 23  1  0
 23 24  2  0
 24 18  1  0
  1  2  2  0
  2  5  1  0
  5  7  2  0
  7  6  1  0
  6  3  2  0
  3  1  1  0
M  END
$$$$
