No_884-complexes_sdf/6BKW-FPZ/2024-09-17-14-21-01/
     RDKit          3D

 18 20  0  0  0  0  0  0  0  0999 V2000
   -7.9040    3.9820   27.1177 C   0  0  0  0  0  0  0  0  0  0  0  0
   -8.2057    2.8231   26.8733 C   0  0  0  0  0  0  0  0  0  0  0  0
   -8.7695    5.0740   26.7916 C   0  0  0  0  0  0  0  0  0  0  0  0
   -9.9618    4.7598   26.1630 C   0  0  0  0  0  0  0  0  0  0  0  0
   -9.4200    2.4524   26.2850 C   0  0  0  0  0  0  0  0  0  0  0  0
  -10.2590    3.4815   25.9250 C   0  0  0  0  0  0  0  0  0  0  0  0
   -8.3840    6.4693   27.0829 C   0  0  0  0  0  0  0  0  0  0  0  0
   -8.8815    7.3355   26.4985 F   0  0  0  0  0  0  0  0  0  0  0  0
   -8.5475    6.6598   28.4698 F   0  0  0  0  0  0  0  0  0  0  0  0
   -6.9650    6.5758   27.0431 F   0  0  0  0  0  0  0  0  0  0  0  0
   -7.1106    1.7882   27.3445 C   0  0  0  0  0  0  0  0  0  0  0  0
   -7.4526    0.3703   27.2661 C   0  0  0  0  0  0  0  0  0  0  0  0
   -8.6754   -0.0947   26.8305 C   0  0  0  0  0  0  0  0  0  0  0  0
   -9.6436    0.9677   26.2960 C   0  0  0  0  0  0  0  0  0  0  0  0
   -6.4728   -0.5626   27.7588 C   0  0  0  0  0  0  0  0  0  0  0  0
   -6.7605   -1.6564   28.4007 C   0  0  0  0  0  0  0  0  0  0  0  0
   -8.1308   -1.8402   28.7669 C   0  0  0  0  0  0  0  0  0  0  0  0
   -9.1647   -1.1818   27.8535 C   0  0  0  0  0  0  0  0  0  0  0  0
  3  7  1  0
  7  8  1  0
  7  9  1  0
  7 10  1  0
  1  2  2  0
  5  6  2  0
  6  4  1  0
  4  3  2  0
  3  1  1  0
  2  5  1  0
  5 14  1  0
 14 13  2  0
 12 11  2  0
 11  2  1  0
 12 13  1  0
 13 18  1  0
 18 17  2  0
 17 16  1  0
 16 15  2  0
 15 12  1  0
M  END
$$$$
