No_8935-complexes_sdf/6BKW-FPZ/2024-09-17-14-21-01/
     RDKit          3D

 40 44  0  0  0  0  0  0  0  0999 V2000
   -7.7129    4.2099   27.0854 C   0  0  0  0  0  0  0  0  0  0  0  0
   -8.9133    4.4736   27.0998 C   0  0  0  0  0  0  0  0  0  0  0  0
   -9.4643    5.5426   27.7628 C   0  0  0  0  0  0  0  0  0  0  0  0
   -7.1220    4.1625   28.1614 C   0  0  0  0  0  0  0  0  0  0  0  0
   -7.2976    5.3836   28.9985 C   0  0  0  0  0  0  0  0  0  0  0  0
   -8.4619    6.1172   28.4601 C   0  0  0  0  0  0  0  0  0  0  0  0
   -9.8675    3.9175   25.9442 C   0  0  0  0  0  0  0  0  0  0  0  0
  -11.0059    3.7912   26.1696 C   0  0  0  0  0  0  0  0  0  0  0  0
  -11.8340    3.2641   25.6417 C   0  0  0  0  0  0  0  0  0  0  0  0
  -11.4757    2.4857   24.4402 C   0  0  0  0  0  0  0  0  0  0  0  0
  -10.1277    2.5884   24.0721 C   0  0  0  0  0  0  0  0  0  0  0  0
   -9.2235    3.1947   24.9071 C   0  0  0  0  0  0  0  0  0  0  0  0
   -9.4711    1.5537   22.6220 Br  0  0  0  0  0  0  0  0  0  0  0  0
   -5.5040    3.4952   28.2021 Cl  0  0  0  0  0  0  0  0  0  0  0  0
  -13.3840    3.2382   25.7124 C   0  0  0  0  0  0  0  0  0  0  0  0
  -13.8101    4.1628   26.3679 C   0  0  0  0  0  0  0  0  0  0  0  0
  -15.2451    4.3189   26.6426 C   0  0  0  0  0  0  0  0  0  0  0  0
  -16.0888    3.4839   26.0825 C   0  0  0  0  0  0  0  0  0  0  0  0
  -15.5498    2.4882   25.2822 C   0  0  0  0  0  0  0  0  0  0  0  0
  -14.2252    2.3643   25.1134 C   0  0  0  0  0  0  0  0  0  0  0  0
  -16.4175    1.6345   24.7491 F   0  0  0  0  0  0  0  0  0  0  0  0
  -15.4512    5.5812   27.4235 C   0  0  0  0  0  0  0  0  0  0  0  0
  -14.9237    5.7387   28.6253 N   0  0  0  0  0  0  0  0  0  0  0  0
  -16.4091    6.6041   27.0204 C   0  0  0  0  0  0  0  0  0  0  0  0
  -16.5779    7.7094   27.8481 C   0  0  0  0  0  0  0  0  0  0  0  0
  -15.9249    7.8053   29.0914 C   0  0  0  0  0  0  0  0  0  0  0  0
  -15.1340    6.7817   29.4384 C   0  0  0  0  0  0  0  0  0  0  0  0
  -17.4476    8.8085   27.3567 C   0  0  0  0  0  0  0  0  0  0  0  0
  -18.6409    8.8822   27.9170 C   0  0  0  0  0  0  0  0  0  0  0  0
  -17.0652    9.6258   26.2708 C   0  0  0  0  0  0  0  0  0  0  0  0
  -19.5787    9.8212   27.4020 C   0  0  0  0  0  0  0  0  0  0  0  0
  -17.8779   10.6066   25.7694 C   0  0  0  0  0  0  0  0  0  0  0  0
  -19.1601   10.7160   26.3437 C   0  0  0  0  0  0  0  0  0  0  0  0
  -16.9776    6.3881   25.5052 Cl  0  0  0  0  0  0  0  0  0  0  0  0
  -21.0865   10.0491   28.1303 Cl  0  0  0  0  0  0  0  0  0  0  0  0
  -20.0166   11.6956   25.9015 O   0  0  0  0  0  0  0  0  0  0  0  0
  -20.2066   11.9276   24.7675 C   0  0  0  0  0  0  0  0  0  0  0  0
  -19.7211   13.0799   24.2504 C   0  0  0  0  0  0  0  0  0  0  0  0
  -19.3404   14.0320   25.0788 C   0  0  0  0  0  0  0  0  0  0  0  0
  -18.6471   15.2718   24.6189 C   0  0  0  0  0  0  0  0  0  0  0  0
  2  7  1  0
 11 13  1  0
  4 14  1  0
  9 15  1  0
 19 21  1  0
 17 22  1  0
 25 28  1  0
 24 34  1  0
 31 35  1  0
 33 36  1  0
 36 37  1  0
 37 38  1  0
 38 39  2  3
 39 40  1  0
 15 16  2  0
 16 17  1  0
 17 18  2  0
 18 19  1  0
 19 20  2  0
 20 15  1  0
  1  2  2  0
  2  3  1  0
  3  6  2  0
  6  5  1  0
  5  4  2  0
  4  1  1  0
 28 29  2  0
 29 31  1  0
 31 33  2  0
 33 32  1  0
 32 30  2  0
 30 28  1  0
  7  8  2  0
  8  9  1  0
  9 10  2  0
 10 11  1  0
 11 12  2  0
 12  7  1  0
 22 23  2  0
 23 27  1  0
 27 26  2  0
 26 25  1  0
 25 24  2  0
 24 22  1  0
M  END
$$$$
