No_8151-complexes_sdf/6BKW-FPZ/2024-09-17-14-21-01/
     RDKit          3D

 27 29  0  0  0  0  0  0  0  0999 V2000
   -7.7129    4.2099   27.0854 C   0  0  0  0  0  0  0  0  0  0  0  0
   -7.7814    5.1722   27.8972 C   0  0  0  0  0  0  0  0  0  0  0  0
   -8.8998    3.8713   26.3707 C   0  0  0  0  0  0  0  0  0  0  0  0
   -9.9938    4.6774   26.5446 C   0  0  0  0  0  0  0  0  0  0  0  0
   -8.7789    6.1536   27.9256 C   0  0  0  0  0  0  0  0  0  0  0  0
   -9.9428    5.8398   27.2296 C   0  0  0  0  0  0  0  0  0  0  0  0
   -8.9119    2.6447   25.5685 C   0  0  0  0  0  0  0  0  0  0  0  0
   -9.7323    2.5751   24.5467 N   0  0  0  0  0  0  0  0  0  0  0  0
   -9.7034    1.4552   23.7977 C   0  0  0  0  0  0  0  0  0  0  0  0
   -8.1056    1.8380   25.8095 F   0  0  0  0  0  0  0  0  0  0  0  0
  -10.5886    1.0503   23.3087 C   0  0  0  0  0  0  0  0  0  0  0  0
  -10.5949   -0.1602   22.3497 C   0  0  0  0  0  0  0  0  0  0  0  0
   -9.3319   -0.7669   22.1452 C   0  0  0  0  0  0  0  0  0  0  0  0
   -8.2045   -0.2040   22.7642 C   0  0  0  0  0  0  0  0  0  0  0  0
   -8.3094    0.8695   23.5577 C   0  0  0  0  0  0  0  0  0  0  0  0
   -9.4502   -1.9289   21.2593 C   0  0  0  0  0  0  0  0  0  0  0  0
   -8.5379   -2.9242   21.4743 C   0  0  0  0  0  0  0  0  0  0  0  0
   -8.4899   -4.0554   20.5443 C   0  0  0  0  0  0  0  0  0  0  0  0
   -9.4259   -4.0405   19.4938 C   0  0  0  0  0  0  0  0  0  0  0  0
  -10.2657   -2.9958   19.2980 C   0  0  0  0  0  0  0  0  0  0  0  0
  -10.2404   -1.9127   20.1330 C   0  0  0  0  0  0  0  0  0  0  0  0
  -11.1775   -3.0165   18.1371 C   0  0  0  0  0  0  0  0  0  0  0  0
  -12.3046   -2.4355   18.1836 C   0  0  0  0  0  0  0  0  0  0  0  0
  -12.7374   -1.7955   19.4083 C   0  0  0  0  0  0  0  0  0  0  0  0
  -12.2042   -1.6653   20.3512 C   0  0  0  0  0  0  0  0  0  0  0  0
  -10.0419   -0.6450   19.3881 N   0  0  0  0  0  0  0  0  0  0  0  0
  -13.2672   -1.5109   21.4803 C   0  0  0  0  0  0  0  0  0  0  0  0
  3  7  1  0
  7  8  2  3
  8  9  1  0
  7 10  1  0
 13 16  1  0
 20 22  1  0
 22 23  2  3
 23 24  1  0
 24 25  2  3
 21 26  1  0
 25 27  1  0
 16 17  2  0
 17 18  1  0
 18 19  2  0
 19 20  1  0
 20 21  2  0
 21 16  1  0
  1  2  2  0
  2  5  1  0
  5  6  2  0
  6  4  1  0
  4  3  2  0
  3  1  1  0
  9 11  2  0
 11 12  1  0
 12 13  2  0
 13 14  1  0
 14 15  2  0
 15  9  1  0
M  END
$$$$
