No_8989-complexes_sdf/6BKW-FPZ/2024-09-17-14-21-01/
     RDKit          3D

 12 13  0  0  0  0  0  0  0  0999 V2000
   -7.7129    4.2099   27.0854 C   0  0  0  0  0  0  0  0  0  0  0  0
   -8.2112    3.0637   26.9225 C   0  0  0  0  0  0  0  0  0  0  0  0
   -8.4224    5.2106   27.8516 C   0  0  0  0  0  0  0  0  0  0  0  0
   -9.5628    2.7160   27.4089 C   0  0  0  0  0  0  0  0  0  0  0  0
  -10.2428    3.7496   28.1155 C   0  0  0  0  0  0  0  0  0  0  0  0
   -9.6677    4.9738   28.3232 C   0  0  0  0  0  0  0  0  0  0  0  0
  -11.5762    3.2789   28.5337 C   0  0  0  0  0  0  0  0  0  0  0  0
  -12.5677    3.1569   27.7851 C   0  0  0  0  0  0  0  0  0  0  0  0
  -13.8515    2.7426   28.2680 C   0  0  0  0  0  0  0  0  0  0  0  0
  -14.0128    2.5413   29.6505 C   0  0  0  0  0  0  0  0  0  0  0  0
  -12.9902    2.7762   30.5002 C   0  0  0  0  0  0  0  0  0  0  0  0
  -11.7510    3.1823   30.0475 C   0  0  0  0  0  0  0  0  0  0  0  0
  5  7  1  0
  1  2  2  0
  2  4  1  0
  4  5  2  0
  5  6  1  0
  6  3  2  0
  3  1  1  0
  7  8  2  0
  8  9  1  0
  9 10  2  0
 10 11  1  0
 11 12  2  0
 12  7  1  0
M  END
$$$$
