No_8936-complexes_sdf/6BKW-FPZ/2024-09-17-14-21-01/
     RDKit          3D

 10 10  0  0  0  0  0  0  0  0999 V2000
   -7.2496    3.8871   27.4508 C   0  0  0  0  0  0  0  0  0  0  0  0
   -8.5096    4.0291   27.2770 C   0  0  0  0  0  0  0  0  0  0  0  0
   -9.2677    5.1714   27.5773 C   0  0  0  0  0  0  0  0  0  0  0  0
   -6.5711    2.6400   27.2842 C   0  0  0  0  0  0  0  0  0  0  0  0
   -7.2939    1.5094   27.0532 C   0  0  0  0  0  0  0  0  0  0  0  0
   -6.6434    0.3282   26.9215 C   0  0  0  0  0  0  0  0  0  0  0  0
   -8.6811    1.6768   26.8702 C   0  0  0  0  0  0  0  0  0  0  0  0
   -9.2981    2.8821   27.0968 C   0  0  0  0  0  0  0  0  0  0  0  0
   -7.0043   -0.6396   27.6132 O   0  0  0  0  0  0  0  0  0  0  0  0
  -10.6319    5.3264   27.5562 C   0  0  0  0  0  0  0  0  0  0  0  0
  5  6  1  0
  6  9  1  0
  3 10  1  0
  3  2  1  0
  1  2  2  0
  2  8  1  0
  8  7  2  0
  7  5  1  0
  5  4  2  0
  4  1  1  0
M  END
$$$$
