No_8623-complexes_sdf/6BKW-FPZ/2024-09-17-14-21-01/
     RDKit          3D

 26 30  0  0  0  0  0  0  0  0999 V2000
   -7.9040    3.9820   27.1177 C   0  0  0  0  0  0  0  0  0  0  0  0
   -7.8663    4.8694   27.9238 C   0  0  0  0  0  0  0  0  0  0  0  0
   -9.0491    3.8523   26.2542 C   0  0  0  0  0  0  0  0  0  0  0  0
   -8.7661    5.9491   27.9690 C   0  0  0  0  0  0  0  0  0  0  0  0
   -9.9295    4.8502   26.2323 C   0  0  0  0  0  0  0  0  0  0  0  0
   -9.8077    5.9288   27.0933 C   0  0  0  0  0  0  0  0  0  0  0  0
   -9.0726    2.7074   25.3087 C   0  0  0  0  0  0  0  0  0  0  0  0
   -8.6026    1.4628   25.7488 C   0  0  0  0  0  0  0  0  0  0  0  0
   -9.9318    2.8541   24.1501 C   0  0  0  0  0  0  0  0  0  0  0  0
   -8.7153    0.4064   24.8664 C   0  0  0  0  0  0  0  0  0  0  0  0
   -9.9932    1.7241   23.3225 C   0  0  0  0  0  0  0  0  0  0  0  0
   -9.3906    0.5373   23.6672 C   0  0  0  0  0  0  0  0  0  0  0  0
   -9.5231   -0.6335   22.7335 C   0  0  0  0  0  0  0  0  0  0  0  0
  -10.4353   -1.5769   23.1339 C   0  0  0  0  0  0  0  0  0  0  0  0
  -10.5597   -2.6393   22.3958 C   0  0  0  0  0  0  0  0  0  0  0  0
   -9.8286   -2.7862   21.1328 C   0  0  0  0  0  0  0  0  0  0  0  0
   -8.9473   -1.8104   20.7266 C   0  0  0  0  0  0  0  0  0  0  0  0
   -8.7287   -0.6582   21.5491 C   0  0  0  0  0  0  0  0  0  0  0  0
   -8.0451   -0.8540   25.2515 C   0  0  0  0  0  0  0  0  0  0  0  0
   -7.3992   -0.9431   26.2276 C   0  0  0  0  0  0  0  0  0  0  0  0
   -7.3754    0.1886   27.2121 C   0  0  0  0  0  0  0  0  0  0  0  0
   -7.8686    1.3524   26.9462 C   0  0  0  0  0  0  0  0  0  0  0  0
  -10.7925    1.9199   22.0951 C   0  0  0  0  0  0  0  0  0  0  0  0
  -11.0085    2.9501   21.5863 N   0  0  0  0  0  0  0  0  0  0  0  0
  -10.8224    4.0437   22.1416 C   0  0  0  0  0  0  0  0  0  0  0  0
  -10.2776    4.1301   23.5400 C   0  0  0  0  0  0  0  0  0  0  0  0
  3  7  1  0
 12 13  1  0
 11 23  1  0
 23 24  2  0
 24 25  1  0
 25 26  2  0
 26  9  1  0
 10 19  2  0
 19 20  1  0
 20 21  2  0
 21 22  1  0
 22  8  2  0
  7  8  1  0
  8 10  1  0
 10 12  1  0
 12 11  2  0
 11  9  1  0
  9  7  2  0
 13 14  2  0
 14 15  1  0
 15 16  2  0
 16 17  1  0
 17 18  2  0
 18 13  1  0
  1  2  2  0
  2  4  1  0
  4  6  2  0
  6  5  1  0
  5  3  2  0
  3  1  1  0
M  END
$$$$
