No_832-complexes_sdf/6BKW-FPZ/2024-09-17-14-21-01/
     RDKit          3D

  6  6  0  0  0  0  0  0  0  0999 V2000
   -7.9040    3.9820   27.1177 C   0  0  0  0  0  0  0  0  0  0  0  0
   -8.2057    2.8231   26.8733 C   0  0  0  0  0  0  0  0  0  0  0  0
   -7.0215    4.6665   27.9638 C   0  0  0  0  0  0  0  0  0  0  0  0
   -7.3008    1.8389   27.4991 C   0  0  0  0  0  0  0  0  0  0  0  0
   -6.0228    2.3636   27.9768 C   0  0  0  0  0  0  0  0  0  0  0  0
   -5.9292    3.6997   28.1957 C   0  0  0  0  0  0  0  0  0  0  0  0
  1  2  2  0
  2  4  1  0
  4  5  2  0
  5  6  1  0
  6  3  2  0
  3  1  1  0
M  END
$$$$
