No_8485-complexes_sdf/6BKW-FPZ/2024-09-17-14-21-01/
     RDKit          3D

 10 10  0  0  0  0  0  0  0  0999 V2000
   -7.7129    4.2099   27.0854 C   0  0  0  0  0  0  0  0  0  0  0  0
   -7.7814    5.1722   27.8972 C   0  0  0  0  0  0  0  0  0  0  0  0
   -8.8776    3.8408   26.3416 C   0  0  0  0  0  0  0  0  0  0  0  0
   -9.7970    4.1983   26.5823 C   0  0  0  0  0  0  0  0  0  0  0  0
  -10.0504    5.3580   27.4349 C   0  0  0  0  0  0  0  0  0  0  0  0
   -8.9636    5.8730   28.0996 C   0  0  0  0  0  0  0  0  0  0  0  0
  -11.1109    3.8192   25.8070 C   0  0  0  0  0  0  0  0  0  0  0  0
  -11.0790    3.5940   24.5426 C   0  0  0  0  0  0  0  0  0  0  0  0
   -9.8020    3.7191   23.8406 C   0  0  0  0  0  0  0  0  0  0  0  0
  -12.2642    3.2530   23.7513 C   0  0  0  0  0  0  0  0  0  0  0  0
  4  7  1  0
  7  8  2  3
  8  9  1  0
  8 10  1  0
  1  2  2  0
  2  6  1  0
  6  5  2  0
  5  4  1  0
  4  3  2  0
  3  1  1  0
M  END
$$$$
