No_8516-complexes_sdf/6BKW-FPZ/2024-09-17-14-21-01/
     RDKit          3D

 10 10  0  0  0  0  0  0  0  0999 V2000
   -7.7129    4.2099   27.0854 C   0  0  0  0  0  0  0  0  0  0  0  0
   -8.2112    3.0637   26.9225 C   0  0  0  0  0  0  0  0  0  0  0  0
   -7.5138    1.9223   27.4249 C   0  0  0  0  0  0  0  0  0  0  0  0
   -8.5309    5.4147   26.8151 C   0  0  1  0  0  0  0  0  0  0  0  0
   -8.1184    6.7672   27.1362 C   0  0  0  0  0  0  0  0  0  0  0  0
   -6.1336    2.1476   27.8091 C   0  0  0  0  0  0  0  0  0  0  0  0
   -5.6983    3.4565   28.0085 C   0  0  0  0  0  0  0  0  0  0  0  0
   -6.4277    4.4718   27.7204 C   0  0  0  0  0  0  0  0  0  0  0  0
   -9.7200    5.2680   26.0490 C   0  0  0  0  0  0  0  0  0  0  0  0
   -8.8303    7.8821   26.7404 C   0  0  0  0  0  0  0  0  0  0  0  0
  1  4  1  0
  4  5  1  0
  4  9  1  6
  5 10  1  0
  1  2  2  0
  2  3  1  0
  3  6  2  0
  6  7  1  0
  7  8  2  0
  8  1  1  0
M  END
$$$$
