No_8239-complexes_sdf/6BKW-FPZ/2024-09-17-14-21-01/
     RDKit          3D

 13 14  0  0  0  0  0  0  0  0999 V2000
   -7.7129    4.2099   27.0854 C   0  0  0  0  0  0  0  0  0  0  0  0
   -8.9133    4.4736   27.0998 C   0  0  0  0  0  0  0  0  0  0  0  0
   -9.8363    3.8127   27.2418 C   0  0  0  0  0  0  0  0  0  0  0  0
   -7.2995    2.8520   27.3808 C   0  0  0  0  0  0  0  0  0  0  0  0
   -8.3404    1.9507   27.4989 C   0  0  0  0  0  0  0  0  0  0  0  0
   -9.6166    2.3791   27.4719 C   0  0  0  0  0  0  0  0  0  0  0  0
   -9.2158    6.2712   26.8813 Cl  0  0  0  0  0  0  0  0  0  0  0  0
   -8.0261    0.5162   27.6976 C   0  0  0  0  0  0  0  0  0  0  0  0
   -9.0483   -0.4575   27.6773 C   0  0  0  0  0  0  0  0  0  0  0  0
   -8.7092   -1.7511   27.8268 C   0  0  0  0  0  0  0  0  0  0  0  0
   -7.3600   -2.1119   27.9923 C   0  0  0  0  0  0  0  0  0  0  0  0
   -6.7035   -0.0739   27.8294 C   0  0  0  0  0  0  0  0  0  0  0  0
   -6.3639   -1.2292   27.9432 C   0  0  0  0  0  0  0  0  0  0  0  0
  2  7  1  0
  5  8  1  0
  1  2  2  0
  2  3  1  0
  3  6  2  0
  6  5  1  0
  5  4  2  0
  4  1  1  0
  8  9  2  0
  9 10  1  0
 10 11  2  0
 11 13  1  0
 13 12  2  0
 12  8  1  0
M  END
$$$$
