No_8933-complexes_sdf/6BKW-FPZ/2024-09-17-14-21-01/
     RDKit          3D

 18 20  0  0  0  0  0  0  0  0999 V2000
   -7.9040    3.9820   27.1177 C   0  0  0  0  0  0  0  0  0  0  0  0
   -7.8663    4.8694   27.9238 C   0  0  0  0  0  0  0  0  0  0  0  0
   -9.0501    3.8017   26.2617 C   0  0  0  0  0  0  0  0  0  0  0  0
  -10.0189    4.7608   26.3707 C   0  0  0  0  0  0  0  0  0  0  0  0
   -8.6973    5.9722   27.8968 C   0  0  0  0  0  0  0  0  0  0  0  0
   -9.8216    5.8946   27.1241 C   0  0  0  0  0  0  0  0  0  0  0  0
   -9.1445    2.6271   25.4265 C   0  0  0  0  0  0  0  0  0  0  0  0
   -8.6427    1.4143   25.8470 C   0  0  0  0  0  0  0  0  0  0  0  0
   -8.6864    0.3974   25.3827 C   0  0  0  0  0  0  0  0  0  0  0  0
   -9.4733    0.2576   24.1639 C   0  0  0  0  0  0  0  0  0  0  0  0
  -10.0365    1.4257   23.6064 C   0  0  0  0  0  0  0  0  0  0  0  0
   -9.9117    2.5875   24.2848 C   0  0  0  0  0  0  0  0  0  0  0  0
   -8.1026   -0.9209   25.8571 C   0  0  0  0  0  0  0  0  0  0  0  0
   -8.5617   -1.6214   26.5736 C   0  0  0  0  0  0  0  0  0  0  0  0
   -7.8874   -2.7623   27.2310 C   0  0  0  0  0  0  0  0  0  0  0  0
   -6.6031   -2.9894   26.9170 C   0  0  0  0  0  0  0  0  0  0  0  0
   -6.6144   -1.0297   25.5573 C   0  0  0  0  0  0  0  0  0  0  0  0
   -5.9089   -2.0738   26.0299 C   0  0  0  0  0  0  0  0  0  0  0  0
  3  7  1  0
  9 13  1  0
 13 14  2  0
 14 15  1  0
 15 16  2  0
 16 18  1  0
 18 17  2  0
 17 13  1  0
  1  2  2  0
  2  5  1  0
  5  6  2  0
  6  4  1  0
  4  3  2  0
  3  1  1  0
  7  8  2  0
  8  9  1  0
  9 10  2  0
 10 11  1  0
 11 12  2  0
 12  7  1  0
M  END
$$$$
