No_8105-complexes_sdf/6BKW-FPZ/2024-09-17-14-21-01/
     RDKit          3D

 14 15  0  0  0  0  0  0  0  0999 V2000
   -7.9040    3.9820   27.1177 C   0  0  0  0  0  0  0  0  0  0  0  0
   -7.8663    4.8694   27.9238 C   0  0  0  0  0  0  0  0  0  0  0  0
   -9.0501    3.8017   26.2617 C   0  0  0  0  0  0  0  0  0  0  0  0
  -10.0189    4.7608   26.3707 C   0  0  0  0  0  0  0  0  0  0  0  0
   -8.6770    5.9780   27.9222 C   0  0  0  0  0  0  0  0  0  0  0  0
   -9.8040    5.8752   27.0958 C   0  0  0  0  0  0  0  0  0  0  0  0
   -9.1766    2.4345   25.2700 Cl  0  0  0  0  0  0  0  0  0  0  0  0
   -6.9925    2.8956   27.1243 O   0  0  0  0  0  0  0  0  0  0  0  0
   -7.3605    1.6064   27.0886 C   0  0  0  0  0  0  0  0  0  0  0  0
   -6.1899    0.7678   27.1480 C   0  0  0  0  0  0  0  0  0  0  0  0
   -6.3481   -0.6249   27.1393 C   0  0  0  0  0  0  0  0  0  0  0  0
   -7.6655   -1.0977   27.0174 C   0  0  0  0  0  0  0  0  0  0  0  0
   -8.7533   -0.2895   26.9725 C   0  0  0  0  0  0  0  0  0  0  0  0
   -8.5643    1.1126   27.0678 C   0  0  0  0  0  0  0  0  0  0  0  0
  3  7  1  0
  1  8  1  0
  8  9  1  0
  9 10  2  0
 10 11  1  0
 11 12  2  0
 12 13  1  0
 13 14  2  0
 14  9  1  0
  1  2  2  0
  2  5  1  0
  5  6  2  0
  6  4  1  0
  4  3  2  0
  3  1  1  0
M  END
$$$$
