No_879-complexes_sdf/6BKW-FPZ/2024-09-17-14-21-01/
     RDKit          3D

 35 39  0  0  0  0  0  0  0  0999 V2000
   -7.7129    4.2099   27.0854 C   0  0  0  0  0  0  0  0  0  0  0  0
   -7.7814    5.1722   27.8972 C   0  0  0  0  0  0  0  0  0  0  0  0
   -8.8776    3.8408   26.3416 C   0  0  0  0  0  0  0  0  0  0  0  0
   -9.9844    4.6492   26.4743 C   0  0  0  0  0  0  0  0  0  0  0  0
   -8.8033    6.1375   27.8728 C   0  0  0  0  0  0  0  0  0  0  0  0
   -9.9554    5.8280   27.1737 C   0  0  0  0  0  0  0  0  0  0  0  0
   -8.8740    2.6184   25.5584 C   0  0  0  0  0  0  0  0  0  0  0  0
   -9.6846    2.5240   24.5290 N   0  0  0  0  0  0  0  0  0  0  0  0
  -10.3120    3.5322   23.9927 C   0  0  0  0  0  0  0  0  0  0  0  0
  -11.2142    3.3812   22.8881 C   0  0  0  0  0  0  0  0  0  0  0  0
   -9.7091    1.2792   23.8092 C   0  0  1  0  0  0  0  0  0  0  0  0
   -9.0836    0.1923   24.2417 C   0  0  1  0  0  0  0  0  0  0  0  0
  -10.4985    1.1882   22.6429 C   0  0  1  0  0  0  0  0  0  0  0  0
  -11.1743    2.3072   22.1276 C   0  0  0  0  0  0  0  0  0  0  0  0
   -8.1445    1.6742   26.0352 O   0  0  0  0  0  0  0  0  0  0  0  0
   -9.4875   -0.7097   25.0255 C   0  0  0  0  0  0  0  0  0  0  0  0
   -8.7588   -1.7785   25.4771 C   0  0  0  0  0  0  0  0  0  0  0  0
   -9.2597   -2.7192   26.4466 C   0  0  0  0  0  0  0  0  0  0  0  0
  -10.5765   -2.4627   26.9459 C   0  0  0  0  0  0  0  0  0  0  0  0
  -11.2861   -1.3366   26.5464 C   0  0  0  0  0  0  0  0  0  0  0  0
  -10.7903   -0.4456   25.6697 C   0  0  0  0  0  0  0  0  0  0  0  0
   -7.8200   -0.1261   23.4769 C   0  0  0  0  0  0  0  0  0  0  0  0
   -6.7097    5.5728   28.6272 F   0  0  0  0  0  0  0  0  0  0  0  0
  -10.4750   -0.0198   21.8681 C   0  0  0  0  0  0  0  0  0  0  0  0
   -9.4764   -0.5322   21.4126 C   0  0  0  0  0  0  0  0  0  0  0  0
   -8.2097   -0.9196   22.3636 C   0  0  1  0  0  0  0  0  0  0  0  0
   -7.3356   -1.9535   21.8149 C   0  0  0  0  0  0  0  0  0  0  0  0
   -7.4159   -3.1240   22.1292 C   0  0  0  0  0  0  0  0  0  0  0  0
   -6.4232   -4.0651   21.7930 C   0  0  0  0  0  0  0  0  0  0  0  0
   -5.4188   -3.7021   20.8969 C   0  0  0  0  0  0  0  0  0  0  0  0
   -5.3757   -2.3985   20.4084 C   0  0  0  0  0  0  0  0  0  0  0  0
   -6.2685   -1.4652   20.9003 C   0  0  0  0  0  0  0  0  0  0  0  0
  -11.7521   -0.6357   21.6485 C   0  0  0  0  0  0  0  0  0  0  0  0
  -12.0184   -1.5019   21.0264 O   0  0  0  0  0  0  0  0  0  0  0  0
  -12.8293    0.0113   22.2948 O   0  0  0  0  0  0  0  0  0  0  0  0
  3  7  1  0
  7  8  1  0
  8  9  1  0
 11  8  1  1
 11 12  1  0
 11 13  1  0
 10 14  1  0
 13 14  1  6
  7 15  2  0
 12 16  1  6
 12 22  1  0
  2 23  1  0
 13 24  1  0
 24 25  2  0
 22 26  1  0
 25 26  1  0
 26 27  1  6
 24 33  1  0
 33 34  2  0
 33 35  1  0
  9 10  1  0
 27 28  2  0
 28 29  1  0
 29 30  2  0
 30 31  1  0
 31 32  2  0
 32 27  1  0
 16 17  2  0
 17 18  1  0
 18 19  2  0
 19 20  1  0
 20 21  2  0
 21 16  1  0
  1  2  2  0
  2  5  1  0
  5  6  2  0
  6  4  1  0
  4  3  2  0
  3  1  1  0
M  END
$$$$
