No_8221-complexes_sdf/6BKW-FPZ/2024-09-17-14-21-01/
     RDKit          3D

  7  7  0  0  0  0  0  0  0  0999 V2000
   -7.9040    3.9820   27.1177 C   0  0  0  0  0  0  0  0  0  0  0  0
   -7.8663    4.8694   27.9238 C   0  0  0  0  0  0  0  0  0  0  0  0
   -9.0122    3.7325   26.1961 C   0  0  0  0  0  0  0  0  0  0  0  0
   -9.9627    4.7293   26.2042 C   0  0  0  0  0  0  0  0  0  0  0  0
   -8.7376    5.9861   27.7955 C   0  0  0  0  0  0  0  0  0  0  0  0
   -9.8178    5.8814   26.9852 C   0  0  0  0  0  0  0  0  0  0  0  0
   -9.0827    2.3805   25.2270 Cl  0  0  0  0  0  0  0  0  0  0  0  0
  3  7  1  0
  1  2  2  0
  2  5  1  0
  5  6  2  0
  6  4  1  0
  4  3  2  0
  3  1  1  0
M  END
$$$$
