No_816-complexes_sdf/6BKW-FPZ/2024-09-17-14-21-01/
     RDKit          3D

 21 23  0  0  0  0  0  0  0  0999 V2000
   -7.9040    3.9820   27.1177 C   0  0  0  0  0  0  0  0  0  0  0  0
   -7.8663    4.8694   27.9238 C   0  0  0  0  0  0  0  0  0  0  0  0
   -9.0953    3.1697   27.0532 C   0  0  0  0  0  0  0  0  0  0  0  0
  -10.1313    3.4052   27.8871 C   0  0  0  0  0  0  0  0  0  0  0  0
  -10.1178    4.5885   28.6885 C   0  0  0  0  0  0  0  0  0  0  0  0
   -8.9412    5.2994   28.7548 C   0  0  0  0  0  0  0  0  0  0  0  0
   -9.0691    1.9565   26.1695 C   0  0  0  0  0  0  0  0  0  0  0  0
   -9.4570    2.1430   24.8640 C   0  0  0  0  0  0  0  0  0  0  0  0
   -9.5371    1.1862   23.8939 C   0  0  0  0  0  0  0  0  0  0  0  0
   -8.5848    0.7467   26.5664 C   0  0  0  0  0  0  0  0  0  0  0  0
   -8.5854   -0.3304   25.6753 C   0  0  0  0  0  0  0  0  0  0  0  0
   -9.0226   -0.0888   24.3474 C   0  0  0  0  0  0  0  0  0  0  0  0
  -11.3207    2.5721   27.8933 C   0  0  0  0  0  0  0  0  0  0  0  0
  -12.5057    2.9451   27.2924 C   0  0  0  0  0  0  0  0  0  0  0  0
  -13.4119    2.1909   26.8042 C   0  0  0  0  0  0  0  0  0  0  0  0
  -11.3304    1.3237   28.4939 C   0  0  0  0  0  0  0  0  0  0  0  0
  -12.3749    0.4153   28.2813 C   0  0  0  0  0  0  0  0  0  0  0  0
  -13.4417    0.8780   27.4378 C   0  0  0  0  0  0  0  0  0  0  0  0
   -9.9397    3.4345   24.4354 N   0  0  0  0  0  0  0  0  0  0  0  0
  -10.8910    3.9887   23.8030 C   0  0  0  0  0  0  0  0  0  0  0  0
  -12.1420    3.6004   24.0286 C   0  0  0  0  0  0  0  0  0  0  0  0
  3  7  1  0
  4 13  1  0
  8 19  1  0
 19 20  1  0
 20 21  2  0
 13 14  2  0
 14 15  1  0
 15 18  2  0
 18 17  1  0
 17 16  2  0
 16 13  1  0
  1  2  2  0
  2  6  1  0
  6  5  2  0
  5  4  1  0
  4  3  2  0
  3  1  1  0
  7  8  2  0
  8  9  1  0
  9 12  2  0
 12 11  1  0
 11 10  2  0
 10  7  1  0
M  END
$$$$
