No_8727-complexes_sdf/6BKW-FPZ/2024-09-17-14-21-01/
     RDKit          3D

 19 20  0  0  0  0  0  0  0  0999 V2000
   -7.7129    4.2099   27.0854 C   0  0  0  0  0  0  0  0  0  0  0  0
   -8.2112    3.0637   26.9225 C   0  0  0  0  0  0  0  0  0  0  0  0
   -8.4224    5.2106   27.8516 C   0  0  0  0  0  0  0  0  0  0  0  0
   -7.4917    1.9381   26.3986 C   0  0  0  0  0  0  0  0  0  0  0  0
   -9.7695    5.0306   28.1322 C   0  0  0  0  0  0  0  0  0  0  0  0
   -9.5839    2.7162   27.3257 C   0  0  0  0  0  0  0  0  0  0  0  0
  -10.3355    3.7874   27.9011 C   0  0  0  0  0  0  0  0  0  0  0  0
   -7.6168    0.7931   26.9452 O   0  0  0  0  0  0  0  0  0  0  0  0
   -7.0480   -0.0549   26.9840 C   0  0  1  0  0  0  0  0  0  0  0  0
   -7.0603   -1.0418   26.0620 C   0  0  0  0  0  0  0  0  0  0  0  0
   -7.8055   -1.0337   25.1855 O   0  0  0  0  0  0  0  0  0  0  0  0
   -6.0659   -2.0676   26.0291 N   0  0  0  0  0  0  0  0  0  0  0  0
   -5.9551   -0.2030   28.0957 C   0  0  0  0  0  0  0  0  0  0  0  0
   -5.2960    0.9398   28.6757 C   0  0  0  0  0  0  0  0  0  0  0  0
   -4.2340    0.7011   29.5473 C   0  0  0  0  0  0  0  0  0  0  0  0
   -3.9170   -0.5716   30.0638 C   0  0  0  0  0  0  0  0  0  0  0  0
   -4.5966   -1.6559   29.5289 C   0  0  0  0  0  0  0  0  0  0  0  0
   -5.5943   -1.4603   28.6153 C   0  0  0  0  0  0  0  0  0  0  0  0
   -6.0381   -2.9717   24.9085 C   0  0  0  0  0  0  0  0  0  0  0  0
  2  4  1  0
  4  8  1  0
  9  8  1  6
  9 10  1  0
 10 11  2  0
 10 12  1  0
  9 13  1  0
 12 19  1  0
 13 14  2  0
 14 15  1  0
 15 16  2  0
 16 17  1  0
 17 18  2  0
 18 13  1  0
  1  2  2  0
  2  6  1  0
  6  7  2  0
  7  5  1  0
  5  3  2  0
  3  1  1  0
M  END
$$$$
