No_8423-complexes_sdf/6BKW-FPZ/2024-09-17-14-21-01/
     RDKit          3D

 24 25  0  0  0  0  0  0  0  0999 V2000
   -7.9040    3.9820   27.1177 C   0  0  0  0  0  0  0  0  0  0  0  0
   -8.2057    2.8231   26.8733 C   0  0  0  0  0  0  0  0  0  0  0  0
   -7.4766    1.7477   27.4593 C   0  0  0  0  0  0  0  0  0  0  0  0
   -8.7468    5.1251   26.6967 C   0  0  0  0  0  0  0  0  0  0  0  0
   -9.7234    4.8589   25.8202 C   0  0  0  0  0  0  0  0  0  0  0  0
   -9.9711    3.5858   25.4266 C   0  0  0  0  0  0  0  0  0  0  0  0
   -9.2266    2.4957   25.9600 C   0  0  0  0  0  0  0  0  0  0  0  0
   -6.1241    1.9216   27.8574 C   0  0  0  0  0  0  0  0  0  0  0  0
   -5.4248    0.7985   28.3602 C   0  0  0  0  0  0  0  0  0  0  0  0
   -5.9324   -0.4517   28.3727 C   0  0  0  0  0  0  0  0  0  0  0  0
   -7.8680    0.3890   27.4333 C   0  0  0  0  0  0  0  0  0  0  0  0
   -7.2076   -0.6217   27.9501 C   0  0  0  0  0  0  0  0  0  0  0  0
   -8.4156    6.5133   27.1052 C   0  0  0  0  0  0  0  0  0  0  0  0
   -8.1798    6.7435   28.2781 O   0  0  0  0  0  0  0  0  0  0  0  0
   -8.5579    7.4825   26.2496 O   0  0  0  0  0  0  0  0  0  0  0  0
   -3.7486    1.1652   28.8797 Cl  0  0  0  0  0  0  0  0  0  0  0  0
  -11.0117    3.3225   24.4271 C   0  0  0  0  0  0  0  0  0  0  0  0
  -10.9847    3.9056   23.3795 N   0  0  0  0  0  0  0  0  0  0  0  0
  -10.3545    4.7480   22.9726 C   0  0  0  0  0  0  0  0  0  0  0  0
  -12.2587    3.7377   22.5957 C   0  0  0  0  0  0  0  0  0  0  0  0
  -11.6392    2.2422   24.6886 O   0  0  0  0  0  0  0  0  0  0  0  0
   -7.8123   -1.9584   28.0435 C   0  0  0  0  0  0  0  0  0  0  0  0
   -8.5749   -2.3837   28.5327 C   0  0  0  0  0  0  0  0  0  0  0  0
   -9.1699   -3.7236   28.6167 C   0  0  0  0  0  0  0  0  0  0  0  0
  2  3  1  0
  4 13  1  0
 13 14  2  0
 13 15  1  0
  9 16  1  0
  6 17  1  0
 17 18  1  0
 18 19  1  0
 18 20  1  0
 17 21  2  0
 12 22  1  0
 22 23  2  3
 23 24  1  0
  3  8  2  0
  8  9  1  0
  9 10  2  0
 10 12  1  0
 12 11  2  0
 11  3  1  0
  1  2  2  0
  2  7  1  0
  7  6  2  0
  6  5  1  0
  5  4  2  0
  4  1  1  0
M  END
$$$$
