No_8552-complexes_sdf/6BKW-FPZ/2024-09-17-14-21-01/
     RDKit          3D

 35 39  0  0  0  0  0  0  0  0999 V2000
   -7.9040    3.9820   27.1177 C   0  0  0  0  0  0  0  0  0  0  0  0
   -7.8663    4.8694   27.9238 C   0  0  0  0  0  0  0  0  0  0  0  0
   -9.0501    3.8017   26.2617 C   0  0  0  0  0  0  0  0  0  0  0  0
  -10.0189    4.7608   26.3707 C   0  0  0  0  0  0  0  0  0  0  0  0
   -8.6973    5.9722   27.8968 C   0  0  0  0  0  0  0  0  0  0  0  0
   -9.8216    5.8946   27.1241 C   0  0  0  0  0  0  0  0  0  0  0  0
   -9.1437    2.6293   25.4175 C   0  0  0  0  0  0  0  0  0  0  0  0
   -9.9828    2.7153   24.2925 C   0  0  0  0  0  0  0  0  0  0  0  0
  -10.1268    1.6091   23.5189 C   0  0  0  0  0  0  0  0  0  0  0  0
   -9.3057    0.4350   23.7675 C   0  0  0  0  0  0  0  0  0  0  0  0
   -8.4257    1.4363   25.5742 C   0  0  0  0  0  0  0  0  0  0  0  0
   -8.4905    0.4049   24.8177 C   0  0  0  0  0  0  0  0  0  0  0  0
   -9.4957   -0.5959   22.8947 F   0  0  0  0  0  0  0  0  0  0  0  0
   -6.6793    5.1167   28.6847 O   0  0  0  0  0  0  0  0  0  0  0  0
   -7.6855   -0.6673   25.1779 O   0  0  0  0  0  0  0  0  0  0  0  0
   -7.9363   -1.4391   26.1940 C   0  0  0  0  0  0  0  0  0  0  0  0
   -7.5543   -1.0002   27.3650 C   0  0  0  0  0  0  0  0  0  0  0  0
   -6.6264   -1.7014   28.1250 C   0  0  0  0  0  0  0  0  0  0  0  0
   -6.0658   -0.9933   29.2709 C   0  0  0  0  0  0  0  0  0  0  0  0
   -5.2451   -1.6209   30.1897 C   0  0  0  0  0  0  0  0  0  0  0  0
   -4.6474   -0.8699   31.3028 C   0  0  0  0  0  0  0  0  0  0  0  0
   -4.1909   -1.4370   32.4290 C   0  0  0  0  0  0  0  0  0  0  0  0
   -4.1158   -2.8260   32.4954 C   0  0  0  0  0  0  0  0  0  0  0  0
   -4.6433   -3.5304   31.4722 C   0  0  0  0  0  0  0  0  0  0  0  0
   -5.2530   -2.9751   30.4032 C   0  0  0  0  0  0  0  0  0  0  0  0
   -5.8584   -3.7268   29.3691 C   0  0  0  0  0  0  0  0  0  0  0  0
   -6.6024   -3.0331   28.3459 C   0  0  0  0  0  0  0  0  0  0  0  0
   -8.3531   -2.6013   25.9251 O   0  0  0  0  0  0  0  0  0  0  0  0
   -3.4997   -0.5374   33.4601 C   0  0  0  0  0  0  0  0  0  0  0  0
   -2.3883   -0.9045   34.0126 N   0  0  0  0  0  0  0  0  0  0  0  0
   -1.2828   -0.9311   33.2775 C   0  0  0  0  0  0  0  0  0  0  0  0
   -2.3902   -1.2600   35.3528 C   0  0  0  0  0  0  0  0  0  0  0  0
   -1.5348   -1.8691   35.7693 C   0  0  0  0  0  0  0  0  0  0  0  0
   -0.1572   -1.6715   33.7815 C   0  0  0  0  0  0  0  0  0  0  0  0
   -0.1700   -1.9497   35.1508 C   0  0  0  0  0  0  0  0  0  0  0  0
  3  7  1  0
 10 13  1  0
  2 14  1  0
 12 15  1  0
 15 16  1  0
 16 17  1  0
 17 18  1  0
 16 28  2  0
 22 29  1  0
 29 30  1  0
 30 31  1  0
 30 32  1  0
 33 35  1  0
 34 35  1  0
 31 34  1  0
 33 32  1  0
 18 19  2  0
 19 20  1  0
 25 26  1  0
 26 27  2  0
 27 18  1  0
 20 21  2  0
 21 22  1  0
 22 23  2  0
 23 24  1  0
 24 25  2  0
 25 20  1  0
  7  8  2  0
  8  9  1  0
  9 10  2  0
 10 12  1  0
 12 11  2  0
 11  7  1  0
  1  2  2  0
  2  5  1  0
  5  6  2  0
  6  4  1  0
  4  3  2  0
  3  1  1  0
M  END
$$$$
