No_8879-complexes_sdf/6BKW-FPZ/2024-09-17-14-21-01/
     RDKit          3D

 19 21  0  0  0  0  0  0  0  0999 V2000
   -7.7129    4.2099   27.0854 C   0  0  0  0  0  0  0  0  0  0  0  0
   -8.2112    3.0637   26.9225 C   0  0  0  0  0  0  0  0  0  0  0  0
   -7.0021    4.5281   28.2396 C   0  0  0  0  0  0  0  0  0  0  0  0
   -7.5497    1.9016   27.4549 C   0  0  0  0  0  0  0  0  0  0  0  0
   -8.0700    0.6173   27.2932 C   0  0  0  0  0  0  0  0  0  0  0  0
   -9.3589    0.5577   26.6828 C   0  0  0  0  0  0  0  0  0  0  0  0
  -10.0040    1.6252   26.1809 C   0  0  0  0  0  0  0  0  0  0  0  0
   -9.4269    2.8857   26.2743 C   0  0  0  0  0  0  0  0  0  0  0  0
   -8.4271    5.3530   26.4842 C   0  0  0  0  0  0  0  0  0  0  0  0
   -8.1382    6.7251   26.9088 C   0  0  0  0  0  0  0  0  0  0  0  0
   -6.8583    5.9179   28.7517 C   0  0  0  0  0  0  0  0  0  0  0  0
   -7.3780    6.9333   28.0310 C   0  0  0  0  0  0  0  0  0  0  0  0
  -11.2944    1.4263   25.4769 C   0  0  0  0  0  0  0  0  0  0  0  0
  -12.3578    1.9859   25.8963 C   0  0  0  0  0  0  0  0  0  0  0  0
  -12.2818    2.6944   27.1792 C   0  0  0  0  0  0  0  0  0  0  0  0
  -13.4633    3.4023   27.7249 C   0  0  0  0  0  0  0  0  0  0  0  0
  -14.4672    3.5867   26.9684 C   0  0  0  0  0  0  0  0  0  0  0  0
  -14.5683    3.0609   25.6747 C   0  0  0  0  0  0  0  0  0  0  0  0
  -13.5047    2.3542   25.1679 C   0  0  0  0  0  0  0  0  0  0  0  0
  1  2  1  0
  7 13  1  0
 13 14  1  0
  1  3  2  0
  3 11  1  0
 11 12  2  0
 12 10  1  0
 10  9  2  0
  9  1  1  0
 14 15  2  0
 15 16  1  0
 16 17  2  0
 17 18  1  0
 18 19  2  0
 19 14  1  0
  2  4  2  0
  4  5  1  0
  5  6  2  0
  6  7  1  0
  7  8  2  0
  8  2  1  0
M  END
$$$$
