No_8456-complexes_sdf/6BKW-FPZ/2024-09-17-14-21-01/
     RDKit          3D

 30 34  0  0  0  0  0  0  0  0999 V2000
   -7.7129    4.2099   27.0854 C   0  0  0  0  0  0  0  0  0  0  0  0
   -7.7814    5.1722   27.8972 C   0  0  0  0  0  0  0  0  0  0  0  0
   -8.8255    3.2789   27.1191 C   0  0  0  0  0  0  0  0  0  0  0  0
   -9.8308    3.5345   27.5808 C   0  0  0  0  0  0  0  0  0  0  0  0
  -10.1189    4.7506   28.3948 C   0  0  0  0  0  0  0  0  0  0  0  0
   -9.0255    5.6392   28.4306 C   0  0  0  0  0  0  0  0  0  0  0  0
   -8.7394    1.9128   26.4630 C   0  0  0  0  0  0  0  0  0  0  0  0
   -7.8188    0.9942   27.0531 C   0  0  0  0  0  0  0  0  0  0  0  0
   -7.7151   -0.2982   26.6318 C   0  0  0  0  0  0  0  0  0  0  0  0
   -9.4109    1.5989   25.3455 C   0  0  0  0  0  0  0  0  0  0  0  0
   -9.3343    0.3425   24.7824 C   0  0  0  0  0  0  0  0  0  0  0  0
   -8.4516   -0.5762   25.4138 C   0  0  0  0  0  0  0  0  0  0  0  0
  -11.3427    2.4592   27.6148 P   0  0  1  0  0  0  0  0  0  0  0  0
  -11.1107    1.4415   28.5210 O   0  0  0  0  0  0  0  0  0  0  0  0
  -12.4155    3.3121   28.2621 O   0  0  0  0  0  0  0  0  0  0  0  0
  -11.7141    2.0809   26.2871 O   0  0  0  0  0  0  0  0  0  0  0  0
  -13.2638    4.1066   27.7610 C   0  0  2  0  0  0  0  0  0  0  0  0
  -14.6474    3.9267   27.8435 C   0  0  0  0  0  0  0  0  0  0  0  0
  -15.1486    3.6390   28.8141 C   0  0  0  0  0  0  0  0  0  0  0  0
  -16.5015    3.4731   29.0118 C   0  0  0  0  0  0  0  0  0  0  0  0
  -15.3998    4.0727   26.6281 C   0  0  0  0  0  0  0  0  0  0  0  0
  -14.7703    4.4101   25.3522 C   0  0  0  0  0  0  0  0  0  0  0  0
  -17.2675    3.5978   27.8587 C   0  0  0  0  0  0  0  0  0  0  0  0
  -16.7469    3.9292   26.6605 C   0  0  0  0  0  0  0  0  0  0  0  0
  -15.2919    4.8272   24.2556 C   0  0  0  0  0  0  0  0  0  0  0  0
  -14.5712    5.0843   23.0850 C   0  0  0  0  0  0  0  0  0  0  0  0
  -13.1685    4.9912   23.0603 C   0  0  0  0  0  0  0  0  0  0  0  0
  -12.5224    4.5006   24.2513 C   0  0  0  0  0  0  0  0  0  0  0  0
  -13.2133    4.2685   25.3345 C   0  0  0  0  0  0  0  0  0  0  0  0
  -12.8066    4.9549   26.8100 O   0  0  0  0  0  0  0  0  0  0  0  0
  3  7  1  0
  4 13  1  0
 13 14  1  1
 13 15  1  0
 13 16  2  0
 17 15  1  6
 17 18  1  0
 21 22  1  0
 17 30  1  0
 29 30  1  0
 22 25  2  0
 25 26  1  0
 26 27  2  0
 27 28  1  0
 28 29  2  0
 29 22  1  0
  1  2  2  0
  2  6  1  0
  6  5  2  0
  5  4  1  0
  4  3  2  0
  3  1  1  0
 18 19  2  0
 19 20  1  0
 20 23  2  0
 23 24  1  0
 24 21  2  0
 21 18  1  0
  7  8  2  0
  8  9  1  0
  9 12  2  0
 12 11  1  0
 11 10  2  0
 10  7  1  0
M  END
$$$$
