No_8973-complexes_sdf/6BKW-FPZ/2024-09-17-14-21-01/
     RDKit          3D

 40 44  0  0  0  0  0  0  0  0999 V2000
   -7.2496    3.8871   27.4508 C   0  0  0  0  0  0  0  0  0  0  0  0
   -7.6161    2.7143   27.1523 C   0  0  0  0  0  0  0  0  0  0  0  0
   -8.6212    2.2239   26.4073 C   0  0  0  0  0  0  0  0  0  0  0  0
   -8.2540    4.9237   27.1711 C   0  0  0  0  0  0  0  0  0  0  0  0
   -8.0481    6.2918   27.4896 C   0  0  0  0  0  0  0  0  0  0  0  0
   -9.5812    3.2432   26.0960 C   0  0  0  0  0  0  0  0  0  0  0  0
   -9.3651    4.5697   26.4537 C   0  0  0  0  0  0  0  0  0  0  0  0
   -6.9146    6.7743   27.7701 C   0  0  0  0  0  0  0  0  0  0  0  0
   -9.1719    7.1595   27.2320 C   0  0  0  0  0  0  0  0  0  0  0  0
   -6.5606    1.5690   27.5465 C   0  0  0  0  0  0  0  0  0  0  0  0
   -5.3259    1.9184   28.1315 C   0  0  0  0  0  0  0  0  0  0  0  0
   -4.4184    0.9071   28.4588 C   0  0  0  0  0  0  0  0  0  0  0  0
   -4.7822   -0.4061   28.4810 C   0  0  0  0  0  0  0  0  0  0  0  0
   -6.7870    0.1917   27.7435 C   0  0  0  0  0  0  0  0  0  0  0  0
   -3.9091   -1.4228   28.9890 C   0  0  2  0  0  0  0  0  0  0  0  0
   -6.0265   -0.7266   28.0960 C   0  0  0  0  0  0  0  0  0  0  0  0
   -2.7881   -1.1538   29.6059 C   0  0  1  0  0  0  0  0  0  0  0  0
   -3.6108   -2.4502   27.8926 C   0  0  0  0  0  0  0  0  0  0  0  0
   -2.4246   -1.9944   30.7228 C   0  0  2  0  0  0  0  0  0  0  0  0
   -1.3607   -2.3909   30.7521 N   0  0  0  0  0  0  0  0  0  0  0  0
   -4.7391   -2.2054   30.1043 C   0  0  0  0  0  0  0  0  0  0  0  0
   -3.6362   -2.6939   31.0377 C   0  0  0  0  0  0  0  0  0  0  0  0
   -0.6853   -2.5502   32.0074 C   0  0  0  0  0  0  0  0  0  0  0  0
   -1.3250   -2.0325   33.2040 C   0  0  0  0  0  0  0  0  0  0  0  0
   -2.3840   -1.5529   33.2583 C   0  0  0  0  0  0  0  0  0  0  0  0
   -3.1973   -1.7521   34.3714 C   0  0  0  0  0  0  0  0  0  0  0  0
   -4.1810   -2.4092   34.3795 C   0  0  0  0  0  0  0  0  0  0  0  0
   -5.0376   -2.5753   35.6241 C   0  0  0  0  0  0  0  0  0  0  0  0
   -4.7298   -1.8284   36.7660 C   0  0  0  0  0  0  0  0  0  0  0  0
   -3.6338   -0.9361   36.7237 C   0  0  0  0  0  0  0  0  0  0  0  0
   -2.8813   -0.8363   35.5874 C   0  0  0  0  0  0  0  0  0  0  0  0
   -0.3535   -2.2262   29.7334 C   0  0  0  0  0  0  0  0  0  0  0  0
   -3.3024   -0.1304   37.9348 C   0  0  0  0  0  0  0  0  0  0  0  0
   -2.7871    0.8476   37.6602 F   0  0  0  0  0  0  0  0  0  0  0  0
   -2.4422   -0.8423   38.6785 F   0  0  0  0  0  0  0  0  0  0  0  0
   -4.4265    0.1473   38.6598 F   0  0  0  0  0  0  0  0  0  0  0  0
   -0.4870   -1.5690   28.8060 C   0  0  0  0  0  0  0  0  0  0  0  0
   -1.5118   -1.0802   28.5892 C   0  0  0  0  0  0  0  0  0  0  0  0
   -3.5330   -1.9317   26.6285 C   0  0  0  0  0  0  0  0  0  0  0  0
   -3.6911   -3.8206   28.0619 C   0  0  0  0  0  0  0  0  0  0  0  0
  4  5  1  0
  5  8  2  0
  5  9  1  0
  2 10  1  0
 13 15  1  0
 15 17  1  0
 15 18  1  6
 17 19  1  0
 19 20  1  0
 15 21  1  0
 19 22  1  6
 21 22  1  0
 20 23  1  0
 23 24  2  3
 24 25  1  0
 25 26  1  0
 20 32  1  0
 30 33  1  0
 33 34  1  0
 33 35  1  0
 33 36  1  0
 32 37  1  0
 17 38  1  6
 37 38  1  0
 18 39  1  0
 18 40  1  0
  1  2  2  0
  2  3  1  0
  3  6  2  0
  6  7  1  0
  7  4  2  0
  4  1  1  0
 10 11  2  0
 11 12  1  0
 12 13  2  0
 13 16  1  0
 16 14  2  0
 14 10  1  0
 26 27  2  0
 27 28  1  0
 28 29  2  0
 29 30  1  0
 30 31  2  0
 31 26  1  0
M  END
$$$$
