No_8699-complexes_sdf/6BKW-FPZ/2024-09-17-14-21-01/
     RDKit          3D

 40 45  0  0  0  0  0  0  0  0999 V2000
   -7.9040    3.9820   27.1177 C   0  0  0  0  0  0  0  0  0  0  0  0
   -8.2057    2.8231   26.8733 C   0  0  0  0  0  0  0  0  0  0  0  0
   -9.2962    2.4021   26.1155 C   0  0  0  0  0  0  0  0  0  0  0  0
   -8.7358    5.0662   26.5917 C   0  0  0  0  0  0  0  0  0  0  0  0
   -9.7618    4.7023   25.7546 C   0  0  0  0  0  0  0  0  0  0  0  0
  -10.0066    3.4105   25.4922 C   0  0  0  0  0  0  0  0  0  0  0  0
   -8.3943    6.4760   26.8801 C   0  0  0  0  0  0  0  0  0  0  0  0
   -8.0574    7.5061   27.0291 N   0  0  0  0  0  0  0  0  0  0  0  0
   -7.5414    1.5302   27.4106 C   0  0  0  0  0  0  0  0  0  0  0  0
   -7.9994    0.2856   27.3423 C   0  0  0  0  0  0  0  0  0  0  0  0
   -9.1833    0.1168   26.5681 C   0  0  0  0  0  0  0  0  0  0  0  0
   -9.8101    1.1144   25.9110 C   0  0  0  0  0  0  0  0  0  0  0  0
   -7.2880   -0.7891   27.9935 C   0  0  0  0  0  0  0  0  0  0  0  0
   -5.9968   -0.6464   28.3973 C   0  0  0  0  0  0  0  0  0  0  0  0
   -5.3089   -1.6393   29.1135 C   0  0  0  0  0  0  0  0  0  0  0  0
   -3.9767   -1.3509   29.6128 C   0  0  0  0  0  0  0  0  0  0  0  0
   -3.3550   -0.1153   29.2900 C   0  0  0  0  0  0  0  0  0  0  0  0
   -4.0780    0.8606   28.5795 C   0  0  0  0  0  0  0  0  0  0  0  0
   -5.3015    0.6245   28.1664 C   0  0  0  0  0  0  0  0  0  0  0  0
   -6.1363    1.6876   27.6387 N   0  0  0  0  0  0  0  0  0  0  0  0
   -7.9424   -2.0823   28.1195 C   0  0  0  0  0  0  0  0  0  0  0  0
   -8.7003   -2.4966   28.7567 N   0  0  0  0  0  0  0  0  0  0  0  0
   -7.5252   -3.0746   27.0447 C   0  0  0  0  0  0  0  0  0  0  0  0
   -9.3237   -3.6579   28.8115 C   0  0  0  0  0  0  0  0  0  0  0  0
   -8.0605   -4.2714   26.9531 C   0  0  0  0  0  0  0  0  0  0  0  0
   -9.0101   -4.5673   27.9174 C   0  0  0  0  0  0  0  0  0  0  0  0
  -10.5838    0.7309   24.8782 C   0  0  0  0  0  0  0  0  0  0  0  0
  -10.4020    0.3728   23.7990 C   0  0  0  0  0  0  0  0  0  0  0  0
   -8.9581    0.0037   23.3871 C   0  0  0  0  0  0  0  0  0  0  0  0
   -8.5051   -0.5440   22.6824 C   0  0  0  0  0  0  0  0  0  0  0  0
   -7.0261   -0.7320   22.3630 C   0  0  0  0  0  0  0  0  0  0  0  0
   -6.5028   -1.5993   21.4307 C   0  0  0  0  0  0  0  0  0  0  0  0
   -7.3719   -2.2193   20.4882 C   0  0  0  0  0  0  0  0  0  0  0  0
   -8.7452   -1.9476   20.5823 C   0  0  0  0  0  0  0  0  0  0  0  0
   -9.2793   -1.2166   21.5892 C   0  0  0  0  0  0  0  0  0  0  0  0
  -12.0607    0.9204   25.2479 C   0  0  0  0  0  0  0  0  0  0  0  0
  -12.4763    1.1243   26.3986 N   0  0  0  0  0  0  0  0  0  0  0  0
  -13.7199    1.4767   26.7896 C   0  0  0  0  0  0  0  0  0  0  0  0
  -12.9487    0.8328   24.3547 O   0  0  0  0  0  0  0  0  0  0  0  0
   -6.8030   -2.9952   19.4255 C   0  0  0  0  0  0  0  0  0  0  0  0
  4  7  1  0
  7  8  3  0
 13 21  1  0
 12 27  1  0
 27 28  2  3
 28 29  1  0
 27 36  1  0
 36 37  1  0
 37 38  1  0
 36 39  2  0
 33 40  1  0
 29 30  1  0
  1  2  2  0
  3  6  2  0
  6  5  1  0
  5  4  2  0
  4  1  1  0
  2  3  1  0
  3 12  1  0
 12 11  2  0
 11 10  1  0
  9  2  1  0
 30 31  2  0
 31 32  1  0
 32 33  2  0
 33 34  1  0
 34 35  2  0
 35 30  1  0
 14 15  1  0
 15 16  2  0
 16 17  1  0
 17 18  2  0
 18 19  1  0
 21 22  2  0
 22 24  1  0
 24 26  2  0
 26 25  1  0
 25 23  2  0
 23 21  1  0
  9 10  2  0
 10 13  1  0
 13 14  2  0
 14 19  1  0
 19 20  2  0
 20  9  1  0
M  END
$$$$
