No_8939-complexes_sdf/6BKW-FPZ/2024-09-17-14-21-01/
     RDKit          3D

 19 20  0  0  0  0  0  0  0  0999 V2000
   -7.9040    3.9820   27.1177 C   0  0  0  0  0  0  0  0  0  0  0  0
   -8.2057    2.8231   26.8733 C   0  0  0  0  0  0  0  0  0  0  0  0
   -7.0130    4.3706   28.1140 C   0  0  0  0  0  0  0  0  0  0  0  0
   -7.4093    1.7370   27.3857 C   0  0  0  0  0  0  0  0  0  0  0  0
   -6.1943    2.1490   28.0403 C   0  0  0  0  0  0  0  0  0  0  0  0
   -5.9708    3.4680   28.3199 C   0  0  0  0  0  0  0  0  0  0  0  0
   -8.9091    5.0939   26.7085 C   0  0  0  0  0  0  0  0  0  0  0  0
   -9.5084    4.9820   25.4339 C   0  0  0  0  0  0  0  0  0  0  0  0
   -5.3728    0.9446   28.3262 C   0  0  0  0  0  0  0  0  0  0  0  0
   -5.7154   -0.2778   28.2225 N   0  0  0  0  0  0  0  0  0  0  0  0
   -4.9165   -1.2678   28.6113 C   0  0  0  0  0  0  0  0  0  0  0  0
   -4.0224    1.1823   28.8914 C   0  0  0  0  0  0  0  0  0  0  0  0
   -3.1985    0.1998   29.3056 C   0  0  0  0  0  0  0  0  0  0  0  0
   -3.6685   -1.0903   29.1417 C   0  0  0  0  0  0  0  0  0  0  0  0
   -8.4611    6.4759   27.0433 C   0  0  0  0  0  0  0  0  0  0  0  0
   -8.2022    7.5998   26.6253 C   0  0  0  0  0  0  0  0  0  0  0  0
  -10.4511    4.0900   25.1407 C   0  0  0  0  0  0  0  0  0  0  0  0
  -11.1905    3.4800   26.1485 C   0  0  0  0  0  0  0  0  0  0  0  0
  -12.3171    2.6354   25.7747 C   0  0  0  0  0  0  0  0  0  0  0  0
  1  7  1  0
  7  8  2  3
  5  9  1  0
  7 15  1  0
 15 16  1  0
  8 17  1  0
 17 18  2  3
 18 19  1  0
  1  2  2  0
  2  4  1  0
  4  5  2  0
  5  6  1  0
  6  3  2  0
  3  1  1  0
  9 10  2  0
 10 11  1  0
 11 14  2  0
 14 13  1  0
 13 12  2  0
 12  9  1  0
M  END
$$$$
