No_8782-complexes_sdf/6BKW-FPZ/2024-09-17-14-21-01/
     RDKit          3D

 25 28  0  0  0  0  0  0  0  0999 V2000
   -7.7129    4.2099   27.0854 C   0  0  0  0  0  0  0  0  0  0  0  0
   -8.2112    3.0637   26.9225 C   0  0  0  0  0  0  0  0  0  0  0  0
   -8.4224    5.2106   27.8516 C   0  0  0  0  0  0  0  0  0  0  0  0
   -9.5628    2.7160   27.4089 C   0  0  0  0  0  0  0  0  0  0  0  0
  -10.2639    3.7034   28.1156 C   0  0  0  0  0  0  0  0  0  0  0  0
   -9.7059    4.9514   28.3169 C   0  0  0  0  0  0  0  0  0  0  0  0
  -11.6210    3.4159   28.6340 C   0  0  0  0  0  0  0  0  0  0  0  0
  -12.5458    4.3000   28.8434 C   0  0  0  0  0  0  0  0  0  0  0  0
  -11.8220    2.0226   29.0170 C   0  0  0  0  0  0  0  0  0  0  0  0
  -13.8143    4.0053   29.3045 C   0  0  0  0  0  0  0  0  0  0  0  0
  -13.1202    1.6844   29.4794 C   0  0  0  0  0  0  0  0  0  0  0  0
  -14.0604    2.6586   29.6489 C   0  0  0  0  0  0  0  0  0  0  0  0
   -7.4993    1.9381   26.3019 C   0  0  0  0  0  0  0  0  0  0  0  0
   -6.6936    1.1753   27.2303 C   0  0  0  0  0  0  0  0  0  0  0  0
   -5.6851    1.7764   27.9321 C   0  0  0  0  0  0  0  0  0  0  0  0
   -4.7393    1.0341   28.7131 C   0  0  0  0  0  0  0  0  0  0  0  0
   -4.8933   -0.3000   28.9804 C   0  0  0  0  0  0  0  0  0  0  0  0
   -6.0366   -0.8904   28.2936 C   0  0  0  0  0  0  0  0  0  0  0  0
   -6.8731   -0.1768   27.4502 C   0  0  0  0  0  0  0  0  0  0  0  0
   -4.0577   -1.0494   29.8428 C   0  0  0  0  0  0  0  0  0  0  0  0
   -3.2440   -0.5558   30.5769 C   0  0  0  0  0  0  0  0  0  0  0  0
   -2.3107   -1.3163   31.4422 C   0  0  0  0  0  0  0  0  0  0  0  0
   -2.3563   -2.6377   31.3408 C   0  0  0  0  0  0  0  0  0  0  0  0
   -3.2797   -3.2118   30.5137 C   0  0  0  0  0  0  0  0  0  0  0  0
   -4.1239   -2.4685   29.7537 C   0  0  0  0  0  0  0  0  0  0  0  0
  5  7  1  0
  2 13  1  0
 13 14  1  0
 17 20  1  0
  1  2  2  0
  2  4  1  0
  4  5  2  0
  5  6  1  0
  6  3  2  0
  3  1  1  0
 14 15  2  0
 15 16  1  0
 16 17  2  0
 17 18  1  0
 18 19  2  0
 19 14  1  0
 20 21  2  0
 21 22  1  0
 22 23  2  0
 23 24  1  0
 24 25  2  0
 25 20  1  0
  7  8  2  0
  8 10  1  0
 10 12  2  0
 12 11  1  0
 11  9  2  0
  9  7  1  0
M  END
$$$$
