No_8802-complexes_sdf/6BKW-FPZ/2024-09-17-14-21-01/
     RDKit          3D

 27 31  0  0  0  0  0  0  0  0999 V2000
   -7.7129    4.2099   27.0854 C   0  0  0  0  0  0  0  0  0  0  0  0
   -7.7814    5.1722   27.8972 C   0  0  0  0  0  0  0  0  0  0  0  0
   -8.8776    3.8408   26.3416 C   0  0  0  0  0  0  0  0  0  0  0  0
   -8.9136    2.6330   25.5655 C   0  0  1  0  0  0  0  0  0  0  0  0
   -8.8361    6.1389   27.9032 C   0  0  0  0  0  0  0  0  0  0  0  0
   -9.9718    4.7048   26.3433 C   0  0  1  0  0  0  0  0  0  0  0  0
   -9.9205    5.8499   27.1013 C   0  0  0  0  0  0  0  0  0  0  0  0
   -8.3007    1.4813   26.1918 C   0  0  0  0  0  0  0  0  0  0  0  0
   -8.9797    0.5580   26.5266 C   0  0  0  0  0  0  0  0  0  0  0  0
  -10.1958    0.6502   26.9808 C   0  0  0  0  0  0  0  0  0  0  0  0
  -10.9786   -0.5265   27.5492 C   0  0  0  0  0  0  0  0  0  0  0  0
  -10.2610   -1.6675   27.7081 C   0  0  0  0  0  0  0  0  0  0  0  0
   -8.3466   -0.8086   26.8378 C   0  0  2  0  0  0  0  0  0  0  0  0
   -6.9209   -0.9147   26.3783 C   0  0  1  0  0  0  0  0  0  0  0  0
   -9.0204   -1.8421   27.3838 C   0  0  0  0  0  0  0  0  0  0  0  0
   -6.1389   -1.8677   27.0009 C   0  0  0  0  0  0  0  0  0  0  0  0
   -4.8870   -1.9588   26.4271 C   0  0  0  0  0  0  0  0  0  0  0  0
   -3.8976   -2.7456   26.9765 C   0  0  0  0  0  0  0  0  0  0  0  0
   -2.5838   -2.5801   26.5710 C   0  0  0  0  0  0  0  0  0  0  0  0
   -2.2272   -1.6187   25.5803 C   0  0  0  0  0  0  0  0  0  0  0  0
   -3.2096   -0.7150   25.2323 C   0  0  0  0  0  0  0  0  0  0  0  0
   -4.4953   -0.8280   25.6198 C   0  0  1  0  0  0  0  0  0  0  0  0
   -6.4383   -0.1386   25.3470 C   0  0  0  0  0  0  0  0  0  0  0  0
   -5.2416   -0.0922   25.0193 O   0  0  0  0  0  0  0  0  0  0  0  0
  -11.0420    4.4577   25.4473 C   0  0  0  0  0  0  0  0  0  0  0  0
   -9.5371    2.5645   24.3476 C   0  0  0  0  0  0  0  0  0  0  0  0
  -10.4723    3.4431   24.0412 C   0  0  0  0  0  0  0  0  0  0  0  0
  1  2  2  0
  1  3  1  0
  3  4  1  0
  2  5  1  0
  3  6  1  0
  5  7  1  0
  6  7  1  6
  4  8  1  1
  8  9  1  0
  9 10  2  0
 10 11  1  0
 11 12  2  0
  9 13  1  0
 13 14  1  0
 12 15  1  0
 13 15  1  6
 14 16  1  0
 16 17  2  0
 17 18  1  0
 18 19  2  0
 19 20  1  0
 20 21  2  0
 17 22  1  0
 21 22  1  0
 14 23  1  6
 22 24  1  6
 23 24  1  0
  6 25  1  0
  4 26  1  0
 25 27  1  0
 26 27  2  0
M  END
$$$$
