No_8780-complexes_sdf/6BKW-FPZ/2024-09-17-14-21-01/
     RDKit          3D

  9  9  0  0  0  0  0  0  0  0999 V2000
   -7.7129    4.2099   27.0854 C   0  0  0  0  0  0  0  0  0  0  0  0
   -7.7814    5.1722   27.8972 C   0  0  0  0  0  0  0  0  0  0  0  0
   -8.8998    3.8713   26.3707 C   0  0  0  0  0  0  0  0  0  0  0  0
   -9.1401    2.5906   25.9433 C   0  0  0  0  0  0  0  0  0  0  0  0
   -8.6957    6.2523   27.8111 C   0  0  0  0  0  0  0  0  0  0  0  0
   -9.8872    5.9756   27.0647 C   0  0  0  0  0  0  0  0  0  0  0  0
   -9.9467    4.7871   26.4059 C   0  0  0  0  0  0  0  0  0  0  0  0
   -9.6395    2.2331   24.7027 C   0  0  0  0  0  0  0  0  0  0  0  0
   -9.7031    0.9744   24.1649 C   0  0  0  0  0  0  0  0  0  0  0  0
  4  8  1  0
  8  9  2  0
  4  3  1  0
  1  2  2  0
  2  5  1  0
  5  6  2  0
  6  7  1  0
  7  3  2  0
  3  1  1  0
M  END
$$$$
