No_8694-complexes_sdf/6BKW-FPZ/2024-09-17-14-21-01/
     RDKit          3D

 20 21  0  0  0  0  0  0  0  0999 V2000
   -7.9040    3.9820   27.1177 C   0  0  0  0  0  0  0  0  0  0  0  0
   -8.2057    2.8231   26.8733 C   0  0  0  0  0  0  0  0  0  0  0  0
   -9.2962    2.4021   26.1155 C   0  0  0  0  0  0  0  0  0  0  0  0
   -8.7358    5.0662   26.5917 C   0  0  0  0  0  0  0  0  0  0  0  0
   -9.7618    4.7023   25.7546 C   0  0  0  0  0  0  0  0  0  0  0  0
  -10.0066    3.4105   25.4922 C   0  0  0  0  0  0  0  0  0  0  0  0
   -8.3936    6.4769   26.8843 C   0  0  0  0  0  0  0  0  0  0  0  0
   -8.0595    6.8026   28.2082 C   0  0  0  0  0  0  0  0  0  0  0  0
   -8.5406    7.4550   25.9076 C   0  0  0  0  0  0  0  0  0  0  0  0
   -7.2050    1.7713   27.5396 C   0  0  0  0  0  0  0  0  0  0  0  0
   -7.5509    0.3980   27.4657 C   0  0  0  0  0  0  0  0  0  0  0  0
   -6.6688   -0.5133   28.0038 C   0  0  0  0  0  0  0  0  0  0  0  0
   -5.4204   -0.0679   28.5172 C   0  0  0  0  0  0  0  0  0  0  0  0
   -5.0677    1.2864   28.3674 C   0  0  0  0  0  0  0  0  0  0  0  0
   -5.8930    2.1575   27.8780 C   0  0  0  0  0  0  0  0  0  0  0  0
   -4.4739   -1.0644   29.0816 C   0  0  1  0  0  0  0  0  0  0  0  0
   -3.3349   -0.7433   29.3225 C   0  0  0  0  0  0  0  0  0  0  0  0
   -2.3245   -0.8964   29.2740 C   0  0  0  0  0  0  0  0  0  0  0  0
   -4.9360   -2.3403   29.3856 C   0  0  0  0  0  0  0  0  0  0  0  0
   -4.1729   -3.2841   28.7993 C   0  0  0  0  0  0  0  0  0  0  0  0
  4  7  1  0
  7  8  2  0
  7  9  1  0
  2 10  1  0
 13 16  1  0
 16 17  1  1
 17 18  3  0
 16 19  1  0
 19 20  1  0
  1  2  2  0
  2  3  1  0
  3  6  2  0
  6  5  1  0
  5  4  2  0
  4  1  1  0
 10 11  2  0
 11 12  1  0
 12 13  2  0
 13 14  1  0
 14 15  2  0
 15 10  1  0
M  END
$$$$
