No_8048-complexes_sdf/6BKW-FPZ/2024-09-17-14-21-01/
     RDKit          3D

 26 30  0  0  0  0  0  0  0  0999 V2000
   -7.7129    4.2099   27.0854 C   0  0  0  0  0  0  0  0  0  0  0  0
   -8.2112    3.0637   26.9225 C   0  0  0  0  0  0  0  0  0  0  0  0
   -8.5108    5.3904   26.9436 C   0  0  0  0  0  0  0  0  0  0  0  0
   -9.7256    5.1955   26.3518 C   0  0  0  0  0  0  0  0  0  0  0  0
   -9.4995    2.8258   26.4878 C   0  0  0  0  0  0  0  0  0  0  0  0
  -10.2542    3.9691   26.2055 C   0  0  0  0  0  0  0  0  0  0  0  0
   -7.6460    6.8595   27.1892 Cl  0  0  0  0  0  0  0  0  0  0  0  0
   -7.1880    1.9319   27.3127 C   0  0  0  0  0  0  0  0  0  0  0  0
   -7.6380    0.6611   27.2945 N   0  0  0  0  0  0  0  0  0  0  0  0
   -6.7867   -0.3154   27.6215 C   0  0  0  0  0  0  0  0  0  0  0  0
   -5.4863    0.0633   28.0010 C   0  0  0  0  0  0  0  0  0  0  0  0
   -5.0899    1.3836   28.0221 C   0  0  0  0  0  0  0  0  0  0  0  0
   -5.9149    2.3337   27.6901 C   0  0  0  0  0  0  0  0  0  0  0  0
   -4.7294   -1.1538   28.4452 C   0  0  0  0  0  0  0  0  0  0  0  0
   -3.5772   -1.0289   28.9958 N   0  0  0  0  0  0  0  0  0  0  0  0
   -5.0726   -2.2816   28.3175 F   0  0  0  0  0  0  0  0  0  0  0  0
   -2.5753   -1.8131   29.1917 C   0  0  0  0  0  0  0  0  0  0  0  0
  -11.5923    3.8125   25.6337 C   0  0  0  0  0  0  0  0  0  0  0  0
  -12.1081    2.6250   25.3385 C   0  0  0  0  0  0  0  0  0  0  0  0
  -11.3772    1.5062   25.6654 C   0  0  0  0  0  0  0  0  0  0  0  0
  -10.0767    1.5818   26.1963 C   0  0  0  0  0  0  0  0  0  0  0  0
   -1.5689   -1.3686   29.8673 C   0  0  0  0  0  0  0  0  0  0  0  0
   -3.0821    0.2554   29.7323 C   0  0  0  0  0  0  0  0  0  0  0  0
   -3.9534    1.0448   30.0866 C   0  0  0  0  0  0  0  0  0  0  0  0
   -1.8816   -0.1273   30.2622 N   0  0  0  0  0  0  0  0  0  0  0  0
   -5.0989    1.4142   29.3792 N   0  0  0  0  0  0  0  0  0  0  0  0
  3  7  1  0
  2  8  1  0
 11 14  1  0
 14 15  1  0
 14 16  1  0
 15 17  1  0
 17 22  2  0
 15 23  1  0
 23 24  1  0
 22 25  1  0
 23 25  2  0
 12 26  1  0
 24 26  2  0
  8  9  2  0
  9 10  1  0
 10 11  2  0
 11 12  1  0
 12 13  2  0
 13  8  1  0
  1  2  2  0
  2  5  1  0
  6  4  1  0
  4  3  2  0
  3  1  1  0
  5  6  2  0
  6 18  1  0
 18 19  2  0
 19 20  1  0
 20 21  2  0
 21  5  1  0
M  END
$$$$
