No_8747-complexes_sdf/6BKW-FPZ/2024-09-17-14-21-01/
     RDKit          3D

 18 19  0  0  0  0  0  0  0  0999 V2000
   -7.9040    3.9820   27.1177 C   0  0  0  0  0  0  0  0  0  0  0  0
   -8.2057    2.8231   26.8733 C   0  0  0  0  0  0  0  0  0  0  0  0
   -8.7695    5.0740   26.7916 C   0  0  0  0  0  0  0  0  0  0  0  0
   -9.9618    4.7598   26.1630 C   0  0  0  0  0  0  0  0  0  0  0  0
   -9.4200    2.4524   26.2849 C   0  0  0  0  0  0  0  0  0  0  0  0
  -10.2590    3.4815   25.9250 C   0  0  0  0  0  0  0  0  0  0  0  0
   -8.3840    6.4693   27.0829 C   0  0  0  0  0  0  0  0  0  0  0  0
   -8.8815    7.3355   26.4985 F   0  0  0  0  0  0  0  0  0  0  0  0
   -7.3446    6.5526   27.9018 F   0  0  0  0  0  0  0  0  0  0  0  0
   -7.2798    1.6703   27.2899 C   0  0  0  0  0  0  0  0  0  0  0  0
   -7.5939    0.3176   27.1894 C   0  0  0  0  0  0  0  0  0  0  0  0
   -8.8648   -0.0152   26.6952 C   0  0  0  0  0  0  0  0  0  0  0  0
   -9.7733    1.0365   26.1831 C   0  0  0  0  0  0  0  0  0  0  0  0
   -6.7280   -0.6866   27.7004 C   0  0  0  0  0  0  0  0  0  0  0  0
   -5.4421   -0.3112   28.0924 C   0  0  0  0  0  0  0  0  0  0  0  0
   -4.5338   -1.2648   28.6441 C   0  0  0  0  0  0  0  0  0  0  0  0
   -3.2490   -0.7466   29.0918 C   0  0  0  0  0  0  0  0  0  0  0  0
   -2.9476    0.6071   28.9647 C   0  0  0  0  0  0  0  0  0  0  0  0
  3  7  1  0
  7  8  1  0
  7  9  1  0
 11 14  1  0
 14 15  2  3
 15 16  1  0
 16 17  2  3
 17 18  1  0
  1  2  2  0
  5  6  2  0
  6  4  1  0
  4  3  2  0
  3  1  1  0
  2  5  1  0
  5 13  1  0
 13 12  2  0
 12 11  1  0
 11 10  2  0
 10  2  1  0
M  END
$$$$
