No_8831-complexes_sdf/6BKW-FPZ/2024-09-17-14-21-01/
     RDKit          3D

 38 42  0  0  0  0  0  0  0  0999 V2000
   -7.9040    3.9820   27.1177 C   0  0  0  0  0  0  0  0  0  0  0  0
   -9.0711    4.3164   27.0630 C   0  0  0  0  0  0  0  0  0  0  0  0
  -10.0395    3.8218   27.1938 C   0  0  0  0  0  0  0  0  0  0  0  0
   -7.6424    2.5858   27.3610 C   0  0  0  0  0  0  0  0  0  0  0  0
   -8.7741    1.7889   27.4566 C   0  0  0  0  0  0  0  0  0  0  0  0
  -11.4607    4.3266   27.1440 C   0  0  0  0  0  0  0  0  0  0  0  0
   -9.9973    2.3765   27.4118 C   0  0  0  0  0  0  0  0  0  0  0  0
   -6.3906    2.0795   27.4212 O   0  0  0  0  0  0  0  0  0  0  0  0
  -12.1263    4.8463   28.3219 C   0  0  0  0  0  0  0  0  0  0  0  0
  -13.4754    5.2269   28.2655 C   0  0  0  0  0  0  0  0  0  0  0  0
  -14.3715    4.6128   27.7647 C   0  0  0  0  0  0  0  0  0  0  0  0
  -15.6603    5.1087   27.6320 C   0  0  0  0  0  0  0  0  0  0  0  0
   -5.5324    2.5549   28.3871 C   0  0  0  0  0  0  0  0  0  0  0  0
  -15.9811    6.2595   28.4168 C   0  0  0  0  0  0  0  0  0  0  0  0
  -15.0031    6.8582   29.1354 C   0  0  0  0  0  0  0  0  0  0  0  0
  -13.7654    6.4551   29.0617 C   0  0  0  0  0  0  0  0  0  0  0  0
  -12.0772    4.3857   25.8964 C   0  0  0  0  0  0  0  0  0  0  0  0
   -9.0371    5.8151   26.8405 F   0  0  0  0  0  0  0  0  0  0  0  0
   -4.3447    1.5303   28.3851 C   0  0  0  0  0  0  0  0  0  0  0  0
   -4.6934    0.1984   28.2525 C   0  0  0  0  0  0  0  0  0  0  0  0
   -5.6941   -0.3487   27.9611 C   0  0  0  0  0  0  0  0  0  0  0  0
   -5.9112   -1.7417   27.8797 C   0  0  0  0  0  0  0  0  0  0  0  0
   -4.8523   -2.5033   28.2879 C   0  0  0  0  0  0  0  0  0  0  0  0
   -3.6820   -0.8756   28.7108 C   0  0  0  0  0  0  0  0  0  0  0  0
   -3.7378   -2.0851   28.6655 C   0  0  0  0  0  0  0  0  0  0  0  0
  -16.7515    4.4092   26.9087 C   0  0  0  0  0  0  0  0  0  0  0  0
  -17.1769    3.2279   27.2059 C   0  0  0  0  0  0  0  0  0  0  0  0
  -18.1164    2.5474   26.4112 C   0  0  0  0  0  0  0  0  0  0  0  0
  -18.6034    3.1938   25.2734 C   0  0  0  0  0  0  0  0  0  0  0  0
  -17.2304    4.8749   25.6874 C   0  0  0  0  0  0  0  0  0  0  0  0
  -18.0903    4.3697   24.9190 C   0  0  0  0  0  0  0  0  0  0  0  0
  -19.7795    2.3478   24.3477 Cl  0  0  0  0  0  0  0  0  0  0  0  0
   -7.2490   -2.2715   27.4632 C   0  0  0  0  0  0  0  0  0  0  0  0
   -7.6400   -3.1960   27.3925 C   0  0  0  0  0  0  0  0  0  0  0  0
   -9.0110   -3.5961   26.8906 C   0  0  0  0  0  0  0  0  0  0  0  0
   -9.8226   -2.5367   26.5777 C   0  0  0  0  0  0  0  0  0  0  0  0
   -9.3769   -1.2744   26.6644 C   0  0  0  0  0  0  0  0  0  0  0  0
   -8.1142   -0.9724   27.1255 C   0  0  0  0  0  0  0  0  0  0  0  0
  3  6  1  0
  4  8  1  0
  6  9  2  3
  9 10  1  0
  8 13  1  0
  6 17  1  0
  2 18  1  0
 13 19  2  3
 19 20  1  0
 12 26  1  0
 29 32  1  0
 22 33  1  0
 10 11  2  0
 11 12  1  0
 12 14  2  0
 14 15  1  0
 15 16  2  0
 16 10  1  0
 33 34  2  0
 34 35  1  0
 35 36  2  0
 36 37  1  0
 37 38  2  0
 38 33  1  0
  1  2  2  0
  2  3  1  0
  3  7  2  0
  7  5  1  0
  5  4  2  0
  4  1  1  0
 20 21  2  0
 21 22  1  0
 22 23  2  0
 23 25  1  0
 25 24  2  0
 24 20  1  0
 26 27  2  0
 27 28  1  0
 28 29  2  0
 29 31  1  0
 31 30  2  0
 30 26  1  0
M  END
$$$$
