No_8645-complexes_sdf/6BKW-FPZ/2024-09-17-14-21-01/
     RDKit          3D

 21 23  0  0  0  0  0  0  0  0999 V2000
   -7.9040    3.9820   27.1177 C   0  0  0  0  0  0  0  0  0  0  0  0
   -8.2057    2.8231   26.8733 C   0  0  0  0  0  0  0  0  0  0  0  0
   -8.7463    4.9537   27.6708 C   0  0  0  0  0  0  0  0  0  0  0  0
  -10.0901    4.5164   28.0293 C   0  0  0  0  0  0  0  0  0  0  0  0
   -9.5729    2.3483   27.2382 C   0  0  0  0  0  0  0  0  0  0  0  0
   -9.9205    0.9854   27.0132 C   0  0  0  0  0  0  0  0  0  0  0  0
  -10.4168    3.2492   27.8398 C   0  0  0  0  0  0  0  0  0  0  0  0
   -9.0274    0.0793   27.0451 C   0  0  0  0  0  0  0  0  0  0  0  0
   -9.3910   -1.2953   26.9084 C   0  0  0  0  0  0  0  0  0  0  0  0
   -8.3421    6.3920   27.8216 C   0  0  0  0  0  0  0  0  0  0  0  0
  -10.7423   -1.5969   26.8240 C   0  0  0  0  0  0  0  0  0  0  0  0
  -11.2951    0.5096   27.2572 C   0  0  0  0  0  0  0  0  0  0  0  0
  -11.6672   -0.7200   27.0771 C   0  0  0  0  0  0  0  0  0  0  0  0
   -7.0589    6.6787   27.3045 C   0  0  0  0  0  0  0  0  0  0  0  0
   -7.1298    8.2332   27.0494 C   0  0  0  0  0  0  0  0  0  0  0  0
  -13.1012   -1.1190   27.1279 C   0  0  0  0  0  0  0  0  0  0  0  0
  -14.0131   -0.4347   27.7932 C   0  0  0  0  0  0  0  0  0  0  0  0
  -13.5059   -2.2633   26.3996 C   0  0  0  0  0  0  0  0  0  0  0  0
  -15.3594   -0.7517   27.8428 C   0  0  0  0  0  0  0  0  0  0  0  0
  -14.8890   -2.5782   26.4333 C   0  0  0  0  0  0  0  0  0  0  0  0
  -15.7573   -1.8415   27.1375 C   0  0  0  0  0  0  0  0  0  0  0  0
  5  6  1  0
  3 10  1  0
 10 14  1  0
 14 15  1  0
 13 16  1  0
  6  8  2  0
  8  9  1  0
  9 11  2  0
 11 13  1  0
 13 12  2  0
 12  6  1  0
 16 17  2  0
 17 19  1  0
 19 21  2  0
 21 20  1  0
 20 18  2  0
 18 16  1  0
  1  2  2  0
  2  5  1  0
  5  7  2  0
  7  4  1  0
  4  3  2  0
  3  1  1  0
M  END
$$$$
