No_8556-complexes_sdf/6BKW-FPZ/2024-09-17-14-21-01/
     RDKit          3D

 14 14  0  0  0  0  0  0  0  0999 V2000
   -7.7129    4.2099   27.0854 C   0  0  0  0  0  0  0  0  0  0  0  0
   -8.9133    4.4736   27.0998 C   0  0  0  0  0  0  0  0  0  0  0  0
   -9.7937    3.7368   26.2091 C   0  0  0  0  0  0  0  0  0  0  0  0
   -6.8266    5.0441   28.0594 C   0  0  0  0  0  0  0  0  0  0  0  0
   -9.2322    2.6276   25.6126 C   0  0  0  0  0  0  0  0  0  0  0  0
   -7.9794    2.1924   25.9863 C   0  0  0  0  0  0  0  0  0  0  0  0
   -7.2411    2.9387   26.9009 C   0  0  0  0  0  0  0  0  0  0  0  0
  -10.0894    1.7793   24.7540 C   0  0  1  0  0  0  0  0  0  0  0  0
  -11.3836    2.2363   24.6002 Cl  0  0  0  0  0  0  0  0  0  0  0  0
   -9.4540    0.7370   24.0566 C   0  0  0  0  0  0  0  0  0  0  0  0
   -9.4160    0.8386   22.6577 C   0  0  0  0  0  0  0  0  0  0  0  0
   -8.8133   -0.2255   21.9061 C   0  0  0  0  0  0  0  0  0  0  0  0
   -8.1568   -1.2835   22.5656 C   0  0  0  0  0  0  0  0  0  0  0  0
   -8.1841   -1.3014   23.9474 C   0  0  0  0  0  0  0  0  0  0  0  0
  1  4  1  0
  5  8  1  0
  8  9  1  6
  8 10  1  0
 10 11  2  3
 11 12  1  0
 12 13  2  3
 13 14  1  0
  1  2  2  0
  2  3  1  0
  3  5  2  0
  5  6  1  0
  6  7  2  0
  7  1  1  0
M  END
$$$$
