No_8594-complexes_sdf/6BKW-FPZ/2024-09-17-14-21-01/
     RDKit          3D

 24 26  0  0  0  0  0  0  0  0999 V2000
   -7.9040    3.9820   27.1177 C   0  0  0  0  0  0  0  0  0  0  0  0
   -8.2057    2.8231   26.8733 C   0  0  0  0  0  0  0  0  0  0  0  0
   -8.7695    5.0740   26.7916 C   0  0  0  0  0  0  0  0  0  0  0  0
   -8.4337    6.4678   27.0913 C   0  0  0  0  0  0  0  0  0  0  0  0
   -9.3742    2.4311   26.2346 C   0  0  0  0  0  0  0  0  0  0  0  0
  -10.2395    3.4267   25.8887 C   0  0  0  0  0  0  0  0  0  0  0  0
   -9.9567    4.7548   26.1374 C   0  0  0  0  0  0  0  0  0  0  0  0
   -7.8881    6.8714   28.1602 N   0  0  0  0  0  0  0  0  0  0  0  0
   -9.0141    7.3957   26.3607 O   0  0  0  0  0  0  0  0  0  0  0  0
   -7.0850    1.5040   27.3523 Cl  0  0  0  0  0  0  0  0  0  0  0  0
  -11.4724    3.1118   25.1300 C   0  0  1  0  0  0  0  0  0  0  0  0
  -12.5340    2.6271   25.8232 C   0  0  0  0  0  0  0  0  0  0  0  0
  -12.5844    2.3122   26.9330 C   0  0  0  0  0  0  0  0  0  0  0  0
  -11.4337    2.4304   27.8614 C   0  0  0  0  0  0  0  0  0  0  0  0
  -11.7463    1.8881   29.3805 C   0  0  0  0  0  0  0  0  0  0  0  0
  -13.0675    1.5606   29.7013 C   0  0  0  0  0  0  0  0  0  0  0  0
  -14.0840    1.5638   28.8233 C   0  0  0  0  0  0  0  0  0  0  0  0
  -13.8993    1.9372   27.5592 C   0  0  0  0  0  0  0  0  0  0  0  0
  -11.4534    3.4991   23.7278 C   0  0  0  0  0  0  0  0  0  0  0  0
  -11.1622    2.5624   22.9105 C   0  0  0  0  0  0  0  0  0  0  0  0
  -10.7378    2.8339   21.6190 C   0  0  0  0  0  0  0  0  0  0  0  0
  -10.7323    4.2184   21.1289 C   0  0  0  0  0  0  0  0  0  0  0  0
  -10.9647    5.1966   22.1048 C   0  0  0  0  0  0  0  0  0  0  0  0
  -11.2664    4.8796   23.3714 C   0  0  0  0  0  0  0  0  0  0  0  0
  3  4  1  0
  4  8  1  0
  4  9  2  0
  2 10  1  0
  6 11  1  0
 11 12  1  1
 11 19  1  0
 12 13  1  0
 13 14  2  0
 14 15  1  0
 15 16  2  0
 16 17  1  0
 17 18  2  0
 18 13  1  0
  1  2  2  0
  2  5  1  0
  5  6  2  0
  6  7  1  0
  7  3  2  0
  3  1  1  0
 19 20  2  0
 20 21  1  0
 21 22  2  0
 22 23  1  0
 23 24  2  0
 24 19  1  0
M  END
$$$$
