No_8186-complexes_sdf/6BKW-FPZ/2024-09-17-14-21-01/
     RDKit          3D

 14 15  0  0  0  0  0  0  0  0999 V2000
   -7.7129    4.2099   27.0854 C   0  0  0  0  0  0  0  0  0  0  0  0
   -8.2112    3.0637   26.9225 C   0  0  0  0  0  0  0  0  0  0  0  0
   -7.0021    4.5281   28.2396 C   0  0  0  0  0  0  0  0  0  0  0  0
   -7.5497    1.9016   27.4549 C   0  0  0  0  0  0  0  0  0  0  0  0
   -8.0831    0.6050   27.2852 C   0  0  0  0  0  0  0  0  0  0  0  0
   -9.3847    0.5379   26.8015 C   0  0  0  0  0  0  0  0  0  0  0  0
  -10.0898    1.6195   26.3689 C   0  0  0  0  0  0  0  0  0  0  0  0
   -9.4935    2.8855   26.3990 C   0  0  0  0  0  0  0  0  0  0  0  0
   -5.8348    3.7563   28.4190 C   0  0  0  0  0  0  0  0  0  0  0  0
   -5.9818    2.2991   28.1692 C   0  0  0  0  0  0  0  0  0  0  0  0
  -10.2264    4.0002   25.8356 C   0  0  0  0  0  0  0  0  0  0  0  0
  -10.1309    4.0869   24.7780 F   0  0  0  0  0  0  0  0  0  0  0  0
   -9.6691    5.1824   26.4256 F   0  0  0  0  0  0  0  0  0  0  0  0
  -11.5281    3.8896   26.1409 F   0  0  0  0  0  0  0  0  0  0  0  0
  8 11  1  0
 11 12  1  0
 11 13  1  0
 11 14  1  0
  1  2  2  0
  4 10  2  0
 10  9  1  0
  9  3  2  0
  3  1  1  0
  2  4  1  0
  4  5  1  0
  5  6  2  0
  6  7  1  0
  7  8  2  0
  8  2  1  0
M  END
$$$$
