No_8252-complexes_sdf/6BKW-FPZ/2024-09-17-14-21-01/
     RDKit          3D

 21 22  0  0  0  0  0  0  0  0999 V2000
   -7.2496    3.8871   27.4508 C   0  0  0  0  0  0  0  0  0  0  0  0
   -7.9379    4.9063   27.8518 C   0  0  0  0  0  0  0  0  0  0  0  0
   -9.3460    4.8223   27.8695 C   0  0  0  0  0  0  0  0  0  0  0  0
   -7.8628    2.6163   27.1065 C   0  0  0  0  0  0  0  0  0  0  0  0
   -9.2787    2.5744   27.1970 C   0  0  0  0  0  0  0  0  0  0  0  0
  -10.0108    3.6770   27.6340 C   0  0  0  0  0  0  0  0  0  0  0  0
  -11.4834    3.5674   27.7432 C   0  0  0  0  0  0  0  0  0  0  0  0
  -12.3295    3.8838   27.2730 C   0  0  0  0  0  0  0  0  0  0  0  0
  -13.7775    3.8550   27.5201 C   0  0  0  0  0  0  0  0  0  0  0  0
  -11.8811    2.7541   28.9768 C   0  0  0  0  0  0  0  0  0  0  0  0
  -13.1198    2.5435   29.3867 C   0  0  0  0  0  0  0  0  0  0  0  0
  -14.1235    3.1476   28.6319 C   0  0  0  0  0  0  0  0  0  0  0  0
   -7.1120    1.4689   26.7664 C   0  0  0  0  0  0  0  0  0  0  0  0
   -7.2293    0.3565   27.5989 C   0  0  0  0  0  0  0  0  0  0  0  0
   -6.9972   -0.8215   26.9597 C   0  0  0  0  0  0  0  0  0  0  0  0
   -7.8811   -1.3620   26.2162 C   0  0  0  0  0  0  0  0  0  0  0  0
   -9.1188   -1.2639   26.4304 C   0  0  0  0  0  0  0  0  0  0  0  0
  -10.1949   -1.7257   25.5275 C   0  0  0  0  0  0  0  0  0  0  0  0
  -11.5260   -1.6249   25.8947 C   0  0  0  0  0  0  0  0  0  0  0  0
  -11.9027   -1.0240   27.1414 C   0  0  0  0  0  0  0  0  0  0  0  0
  -10.9402   -0.6409   28.0538 C   0  0  0  0  0  0  0  0  0  0  0  0
  6  7  1  0
  4 13  1  0
 13 14  1  0
 14 15  1  0
 15 16  1  0
 16 17  2  3
 17 18  1  0
 18 19  2  3
 19 20  1  0
 20 21  2  0
  1  2  2  0
  2  3  1  0
  3  6  2  0
  6  5  1  0
  5  4  2  0
  4  1  1  0
  7  8  2  0
  8  9  1  0
  9 12  2  0
 12 11  1  0
 11 10  2  0
 10  7  1  0
M  END
$$$$
