No_8216-complexes_sdf/6BKW-FPZ/2024-09-17-14-21-01/
     RDKit          3D

 22 25  0  0  0  0  0  0  0  0999 V2000
   -7.2496    3.8871   27.4508 C   0  0  0  0  0  0  0  0  0  0  0  0
   -7.9379    4.9063   27.8518 C   0  0  0  0  0  0  0  0  0  0  0  0
   -9.3460    4.8223   27.8695 C   0  0  0  0  0  0  0  0  0  0  0  0
   -7.8628    2.6163   27.1065 C   0  0  0  0  0  0  0  0  0  0  0  0
   -9.2787    2.5744   27.1970 C   0  0  0  0  0  0  0  0  0  0  0  0
  -10.0108    3.6770   27.6340 C   0  0  0  0  0  0  0  0  0  0  0  0
  -11.4487    3.3729   27.7139 C   0  0  0  0  0  0  0  0  0  0  0  0
  -12.3072    3.8789   27.8900 O   0  0  0  0  0  0  0  0  0  0  0  0
  -11.7509    1.9381   27.5567 N   0  0  0  0  0  0  0  0  0  0  0  0
  -12.4808    1.3060   28.0340 C   0  0  0  0  0  0  0  0  0  0  0  0
  -12.3572   -0.0545   28.1357 C   0  0  0  0  0  0  0  0  0  0  0  0
  -11.1890   -0.5873   27.5482 C   0  0  0  0  0  0  0  0  0  0  0  0
  -10.2410    0.1495   27.0205 C   0  0  0  0  0  0  0  0  0  0  0  0
  -10.5556    1.3048   26.8498 C   0  0  2  0  0  0  0  0  0  0  0  0
   -7.3149    6.0922   28.1416 O   0  0  0  0  0  0  0  0  0  0  0  0
   -6.9480    1.2840   26.6636 Cl  0  0  0  0  0  0  0  0  0  0  0  0
  -10.7177    1.5604   25.4832 C   0  0  0  0  0  0  0  0  0  0  0  0
  -11.5668    1.1070   24.6601 C   0  0  0  0  0  0  0  0  0  0  0  0
  -11.6041    1.4673   23.3408 C   0  0  0  0  0  0  0  0  0  0  0  0
   -9.7979    2.5232   24.6655 C   0  0  0  0  0  0  0  0  0  0  0  0
  -12.5699    0.9571   22.3814 C   0  0  0  0  0  0  0  0  0  0  0  0
  -10.3654    1.7737   24.3720 O   0  0  0  0  0  0  0  0  0  0  0  0
  6  7  1  0
  7  8  2  0
  7  9  1  0
  9 10  1  0
 11 12  1  0
  5 14  1  0
  9 14  1  0
 13 14  1  0
  2 15  1  0
  4 16  1  0
 14 17  1  6
 17 18  1  0
 18 19  2  0
 17 20  1  0
 19 21  1  0
 19 22  1  0
 20 22  1  0
 10 11  1  0
 12 13  1  0
  1  2  2  0
  2  3  1  0
  3  6  2  0
  6  5  1  0
  5  4  2  0
  4  1  1  0
M  END
$$$$
