No_8584-complexes_sdf/6BKW-FPZ/2024-09-17-14-21-01/
     RDKit          3D

 20 22  0  0  0  0  0  0  0  0999 V2000
   -7.2496    3.8871   27.4508 C   0  0  0  0  0  0  0  0  0  0  0  0
   -7.6161    2.7143   27.1523 C   0  0  0  0  0  0  0  0  0  0  0  0
   -8.6212    2.2239   26.4074 C   0  0  2  0  0  0  0  0  0  0  0  0
   -8.2540    4.9237   27.1711 C   0  0  2  0  0  0  0  0  0  0  0  0
   -9.3729    4.5806   26.4433 C   0  0  0  0  0  0  0  0  0  0  0  0
   -9.5830    3.2969   26.1026 C   0  0  1  0  0  0  0  0  0  0  0  0
   -7.8800    6.5457   27.6186 Cl  0  0  0  0  0  0  0  0  0  0  0  0
   -8.8700    0.8884   26.0645 C   0  0  0  0  0  0  0  0  0  0  0  0
   -9.1010    0.5705   24.9026 C   0  0  0  0  0  0  0  0  0  0  0  0
   -9.1764    1.6321   23.8651 C   0  0  0  0  0  0  0  0  0  0  0  0
   -9.8318    2.8987   24.3253 C   0  0  1  0  0  0  0  0  0  0  0  0
  -10.9416    2.8180   26.5582 C   0  0  0  0  0  0  0  0  0  0  0  0
  -11.5743    2.0297   26.7005 C   0  0  0  0  0  0  0  0  0  0  0  0
  -12.8079    1.7920   27.4875 C   0  0  0  0  0  0  0  0  0  0  0  0
  -13.3967    2.9638   27.9385 C   0  0  0  0  0  0  0  0  0  0  0  0
  -12.7718    4.1897   27.7563 C   0  0  0  0  0  0  0  0  0  0  0  0
  -11.6209    4.2618   27.1428 C   0  0  0  0  0  0  0  0  0  0  0  0
  -10.6835    3.6878   23.7136 C   0  0  0  0  0  0  0  0  0  0  0  0
  -10.6197    3.7622   22.3477 C   0  0  0  0  0  0  0  0  0  0  0  0
  -11.4029    4.7188   21.6320 C   0  0  0  0  0  0  0  0  0  0  0  0
  1  2  1  0
  4  5  1  0
  3  6  1  0
  5  6  1  0
  4  7  1  6
  3  8  1  1
  9 10  1  0
  6 11  1  0
 11 10  1  1
  6 12  1  1
 11 18  1  0
 18 19  2  3
 19 20  1  0
  3  2  1  0
  1  4  1  0
  8  9  1  0
 12 13  2  0
 13 14  1  0
 14 15  2  0
 15 16  1  0
 16 17  2  0
 17 12  1  0
M  END
$$$$
