No_8624-complexes_sdf/6BKW-FPZ/2024-09-17-14-21-01/
     RDKit          3D

 27 31  0  0  0  0  0  0  0  0999 V2000
   -7.7129    4.2099   27.0854 C   0  0  0  0  0  0  0  0  0  0  0  0
   -8.2112    3.0637   26.9225 C   0  0  0  0  0  0  0  0  0  0  0  0
   -8.5108    5.3904   26.9436 C   0  0  0  0  0  0  0  0  0  0  0  0
   -9.7256    5.1955   26.3518 C   0  0  0  0  0  0  0  0  0  0  0  0
   -7.4704    1.8386   27.3272 C   0  0  0  0  0  0  0  0  0  0  0  0
   -9.4948    2.8714   26.4765 C   0  0  0  0  0  0  0  0  0  0  0  0
  -10.0318    1.5514   26.2490 C   0  0  0  0  0  0  0  0  0  0  0  0
  -10.2671    3.9730   26.1637 C   0  0  0  0  0  0  0  0  0  0  0  0
   -7.8770    0.5343   27.1424 C   0  0  0  0  0  0  0  0  0  0  0  0
  -11.3009    1.3390   25.7522 C   0  0  0  0  0  0  0  0  0  0  0  0
   -9.1812    0.4228   26.6788 C   0  0  0  0  0  0  0  0  0  0  0  0
   -7.9258    6.7544   27.1566 C   0  0  0  0  0  0  0  0  0  0  0  0
  -11.6364    0.1988   25.5591 C   0  0  0  0  0  0  0  0  0  0  0  0
  -10.9186   -0.9735   26.0070 C   0  0  0  0  0  0  0  0  0  0  0  0
   -9.6842   -0.8700   26.5501 C   0  0  0  0  0  0  0  0  0  0  0  0
   -6.8941    6.8135   27.8444 O   0  0  0  0  0  0  0  0  0  0  0  0
   -8.4173    7.8668   26.6042 N   0  0  0  0  0  0  0  0  0  0  0  0
   -7.0356   -0.5234   27.5081 C   0  0  0  0  0  0  0  0  0  0  0  0
   -5.6949   -0.4522   27.3464 C   0  0  0  0  0  0  0  0  0  0  0  0
   -4.9118   -1.4469   27.7535 C   0  0  0  0  0  0  0  0  0  0  0  0
   -3.4328   -1.2431   27.7467 C   0  0  0  0  0  0  0  0  0  0  0  0
   -2.8580   -0.0130   27.3114 C   0  0  0  0  0  0  0  0  0  0  0  0
   -3.7976    1.0392   27.0850 C   0  0  0  0  0  0  0  0  0  0  0  0
   -5.1016    0.8454   27.1310 C   0  0  0  0  0  0  0  0  0  0  0  0
   -6.0340    1.9432   27.0183 N   0  0  0  0  0  0  0  0  0  0  0  0
   -5.3501   -2.7501   28.0851 C   0  0  0  0  0  0  0  0  0  0  0  0
   -6.4082   -2.6886   28.2227 F   0  0  0  0  0  0  0  0  0  0  0  0
  3 12  1  0
 12 16  2  0
 12 17  1  0
  9 18  1  0
 18 19  1  0
  5 25  1  0
 24 25  1  0
 20 26  1  0
 26 27  1  0
  1  2  2  0
  6  8  2  0
  8  4  1  0
  4  3  2  0
  3  1  1  0
  7 10  2  0
 10 13  1  0
 13 14  2  0
 14 15  1  0
 15 11  2  0
 19 20  2  0
 20 21  1  0
 21 22  2  0
 22 23  1  0
 23 24  2  0
 24 19  1  0
  2  5  1  0
  5  9  2  0
  9 11  1  0
 11  7  1  0
  7  6  1  0
  6  2  1  0
M  END
$$$$
