No_8987-complexes_sdf/6BKW-FPZ/2024-09-17-14-21-01/
     RDKit          3D

 22 23  0  0  0  0  0  0  0  0999 V2000
   -7.7129    4.2099   27.0854 C   0  0  0  0  0  0  0  0  0  0  0  0
   -8.2112    3.0637   26.9225 C   0  0  0  0  0  0  0  0  0  0  0  0
   -9.4446    2.8304   26.1868 C   0  0  0  0  0  0  0  0  0  0  0  0
   -8.4697    5.3956   26.7238 C   0  0  0  0  0  0  0  0  0  0  0  0
   -9.6172    5.2111   25.9513 C   0  0  0  0  0  0  0  0  0  0  0  0
  -10.0424    3.9782   25.6873 C   0  0  0  0  0  0  0  0  0  0  0  0
   -7.5056    1.8167   27.4088 C   0  0  0  0  0  0  0  0  0  0  0  0
   -8.0423    0.5366   27.2920 C   0  0  0  0  0  0  0  0  0  0  0  0
   -9.3616    0.5005   26.6856 C   0  0  0  0  0  0  0  0  0  0  0  0
   -9.9941    1.5661   26.0723 C   0  0  0  0  0  0  0  0  0  0  0  0
   -7.9428    6.7510   27.0021 C   0  0  0  0  0  0  0  0  0  0  0  0
   -7.1248    6.8251   27.9652 O   0  0  0  0  0  0  0  0  0  0  0  0
   -8.1501    7.8801   26.2578 N   0  0  0  0  0  0  0  0  0  0  0  0
   -7.5079   -0.4457   27.8540 F   0  0  0  0  0  0  0  0  0  0  0  0
  -11.6048    3.8428   24.6526 Br  0  0  0  0  0  0  0  0  0  0  0  0
   -9.8609   -0.7325   26.6292 F   0  0  0  0  0  0  0  0  0  0  0  0
   -6.3337    2.0523   28.0309 O   0  0  0  0  0  0  0  0  0  0  0  0
   -5.3617    1.0328   27.9041 C   0  0  2  0  0  0  0  0  0  0  0  0
   -4.0542    1.6361   27.7590 C   0  0  0  0  0  0  0  0  0  0  0  0
   -3.2204    0.5100   27.2366 C   0  0  0  0  0  0  0  0  0  0  0  0
   -3.6241   -0.6064   27.1500 C   0  0  0  0  0  0  0  0  0  0  0  0
   -5.3898   -0.2699   27.4561 C   0  0  0  0  0  0  0  0  0  0  0  0
  4 11  1  0
 11 12  2  0
 11 13  1  0
  8 14  1  0
  6 15  1  0
  9 16  1  0
  7 17  1  0
 17 18  1  0
 18 19  1  0
 19 20  2  3
 20 21  1  0
 18 22  1  6
  1  2  2  0
  3  6  2  0
  6  5  1  0
  5  4  2  0
  4  1  1  0
  2  3  1  0
  3 10  1  0
 10  9  2  0
  9  8  1  0
  8  7  2  0
  7  2  1  0
M  END
$$$$
