No_8968-complexes_sdf/6BKW-FPZ/2024-09-17-14-21-01/
     RDKit          3D

 20 21  0  0  0  0  0  0  0  0999 V2000
   -7.9040    3.9820   27.1177 C   0  0  0  0  0  0  0  0  0  0  0  0
   -8.2057    2.8231   26.8733 C   0  0  0  0  0  0  0  0  0  0  0  0
   -7.4766    1.7477   27.4593 C   0  0  0  0  0  0  0  0  0  0  0  0
   -8.7468    5.1251   26.6967 C   0  0  0  0  0  0  0  0  0  0  0  0
   -9.7234    4.8589   25.8202 C   0  0  0  0  0  0  0  0  0  0  0  0
   -9.9711    3.5858   25.4266 C   0  0  0  0  0  0  0  0  0  0  0  0
   -9.2266    2.4957   25.9600 C   0  0  0  0  0  0  0  0  0  0  0  0
   -6.6425    0.9223   26.7531 C   0  0  0  0  0  0  0  0  0  0  0  0
   -5.7452    0.1285   27.5453 C   0  0  0  0  0  0  0  0  0  0  0  0
   -6.1837   -1.0758   27.9248 C   0  0  0  0  0  0  0  0  0  0  0  0
   -8.4454    6.5186   27.1035 C   0  0  0  0  0  0  0  0  0  0  0  0
   -7.1275   -1.6404   27.6134 C   0  0  0  0  0  0  0  0  0  0  0  0
   -7.6120   -2.9645   28.1129 C   0  0  0  0  0  0  0  0  0  0  0  0
   -7.8279    6.8277   28.1814 N   0  0  0  0  0  0  0  0  0  0  0  0
   -8.8763    7.5438   26.3538 N   0  0  0  0  0  0  0  0  0  0  0  0
   -6.8958   -3.4693   29.1847 C   0  0  0  0  0  0  0  0  0  0  0  0
   -5.8157   -2.8317   29.7044 C   0  0  0  0  0  0  0  0  0  0  0  0
   -5.3884   -1.6041   29.1904 C   0  0  0  0  0  0  0  0  0  0  0  0
   -4.4343    0.7170   27.8400 C   0  0  0  0  0  0  0  0  0  0  0  0
   -3.8373    1.4833   27.2836 O   0  0  0  0  0  0  0  0  0  0  0  0
  2  3  1  0
  3  8  1  0
  8  9  1  0
  9 10  1  0
  4 11  1  0
 11 14  2  0
 11 15  1  0
  9 19  1  0
 19 20  2  0
  1  2  2  0
  2  7  1  0
  7  6  2  0
  6  5  1  0
  5  4  2  0
  4  1  1  0
 10 12  2  0
 12 13  1  0
 13 16  2  0
 16 17  1  0
 17 18  2  0
 18 10  1  0
M  END
$$$$
