No_840-complexes_sdf/6BKW-FPZ/2024-09-17-14-21-01/
     RDKit          3D

 28 31  0  0  0  0  0  0  0  0999 V2000
   -7.2496    3.8871   27.4508 C   0  0  0  0  0  0  0  0  0  0  0  0
   -8.5096    4.0291   27.2770 C   0  0  0  0  0  0  0  0  0  0  0  0
   -9.2677    5.1714   27.5773 C   0  0  0  0  0  0  0  0  0  0  0  0
   -6.5711    2.6400   27.2842 C   0  0  0  0  0  0  0  0  0  0  0  0
   -7.2939    1.5094   27.0532 C   0  0  0  0  0  0  0  0  0  0  0  0
   -8.6122    1.6580   26.7575 C   0  0  0  0  0  0  0  0  0  0  0  0
   -9.2984    2.8495   26.9904 C   0  0  0  0  0  0  0  0  0  0  0  0
   -8.5439    6.4004   27.5644 C   0  0  0  0  0  0  0  0  0  0  0  0
  -10.5929    5.2197   26.8798 C   0  0  0  0  0  0  0  0  0  0  0  0
   -6.5884    0.2680   26.8621 C   0  0  0  0  0  0  0  0  0  0  0  0
   -5.5889   -0.0017   27.7957 C   0  0  0  0  0  0  0  0  0  0  0  0
   -5.2139    0.9635   28.8416 C   0  0  0  0  0  0  0  0  0  0  0  0
   -5.3564    2.3634   28.3220 C   0  0  0  0  0  0  0  0  0  0  0  0
   -5.0574   -1.3670   27.9046 C   0  0  0  0  0  0  0  0  0  0  0  0
   -4.4882   -1.9090   28.6005 C   0  0  0  0  0  0  0  0  0  0  0  0
   -3.9654   -3.2477   28.5554 C   0  0  0  0  0  0  0  0  0  0  0  0
   -4.3907   -3.9016   27.3948 C   0  0  0  0  0  0  0  0  0  0  0  0
   -5.4216   -2.1986   26.7276 C   0  0  0  0  0  0  0  0  0  0  0  0
   -5.0106   -3.3938   26.4948 C   0  0  0  0  0  0  0  0  0  0  0  0
   -9.3858    0.4885   26.2795 C   0  0  2  0  0  0  0  0  0  0  0  0
   -9.5959    0.3075   25.0081 C   0  0  0  0  0  0  0  0  0  0  0  0
   -9.4413   -0.7093   24.3656 C   0  0  0  0  0  0  0  0  0  0  0  0
   -9.4970   -0.7572   22.9488 C   0  0  0  0  0  0  0  0  0  0  0  0
   -9.7491    0.4401   22.1721 C   0  0  0  0  0  0  0  0  0  0  0  0
   -9.8050    1.6086   22.8887 C   0  0  0  0  0  0  0  0  0  0  0  0
   -9.6726    1.6334   24.2305 C   0  0  0  0  0  0  0  0  0  0  0  0
  -10.7292    0.4021   27.0531 C   0  0  0  0  0  0  0  0  0  0  0  0
  -11.5719    1.2680   27.1990 C   0  0  0  0  0  0  0  0  0  0  0  0
  3  8  1  0
  3  9  1  0
 11 14  1  0
  6 20  1  0
 20 21  1  0
 20 27  1  1
 27 28  3  0
  3  2  1  0
  5 10  2  0
 10 11  1  0
 11 12  2  0
 12 13  1  0
 13  4  2  0
 14 15  2  0
 15 16  1  0
 16 17  2  0
 17 19  1  0
 19 18  2  0
 18 14  1  0
  1  2  2  0
  2  7  1  0
  7  6  2  0
  6  5  1  0
  5  4  1  0
  4  1  1  0
 21 22  2  0
 22 23  1  0
 23 24  2  0
 24 25  1  0
 25 26  2  0
 26 21  1  0
M  END
$$$$
