No_8812-complexes_sdf/6BKW-FPZ/2024-09-17-14-21-01/
     RDKit          3D

 16 17  0  0  0  0  0  0  0  0999 V2000
   -7.7129    4.2099   27.0854 C   0  0  0  0  0  0  0  0  0  0  0  0
   -8.2112    3.0637   26.9225 C   0  0  0  0  0  0  0  0  0  0  0  0
   -7.5138    1.9223   27.4249 C   0  0  0  0  0  0  0  0  0  0  0  0
   -8.5309    5.4147   26.8151 C   0  0  0  0  0  0  0  0  0  0  0  0
   -9.6817    5.2393   26.1100 C   0  0  0  0  0  0  0  0  0  0  0  0
  -10.1032    3.9957   25.8534 C   0  0  0  0  0  0  0  0  0  0  0  0
   -9.4034    2.8430   26.2573 C   0  0  0  0  0  0  0  0  0  0  0  0
   -6.5034    2.1795   28.1772 F   0  0  0  0  0  0  0  0  0  0  0  0
   -7.8382    0.5946   27.1534 C   0  0  0  0  0  0  0  0  0  0  0  0
   -7.0062   -0.2140   26.5640 C   0  0  0  0  0  0  0  0  0  0  0  0
   -5.6794    0.1711   26.3299 C   0  0  0  0  0  0  0  0  0  0  0  0
   -4.7519   -0.8843   25.7415 C   0  0  0  0  0  0  0  0  0  0  0  0
   -5.3338   -1.9885   25.2105 C   0  0  0  0  0  0  0  0  0  0  0  0
   -6.5778   -2.0859   25.2658 C   0  0  0  0  0  0  0  0  0  0  0  0
   -7.5089   -1.3506   25.9574 C   0  0  0  0  0  0  0  0  0  0  0  0
   -7.8423    7.1308   27.1993 Br  0  0  0  0  0  0  0  0  0  0  0  0
  2  3  1  0
  3  8  1  0
  3  9  1  0
  4 16  1  0
  9 10  1  0
  1  2  2  0
  2  7  1  0
  7  6  2  0
  6  5  1  0
  5  4  2  0
  4  1  1  0
 10 11  2  0
 11 12  1  0
 12 13  2  0
 13 14  1  0
 14 15  2  0
 15 10  1  0
M  END
$$$$
