No_841-complexes_sdf/6BKW-FPZ/2024-09-17-14-21-01/
     RDKit          3D

 24 26  0  0  0  0  0  0  0  0999 V2000
   -7.9040    3.9820   27.1177 C   0  0  0  0  0  0  0  0  0  0  0  0
   -8.2057    2.8231   26.8733 C   0  0  0  0  0  0  0  0  0  0  0  0
   -8.7695    5.0740   26.7916 C   0  0  0  0  0  0  0  0  0  0  0  0
   -9.9618    4.7598   26.1630 C   0  0  0  0  0  0  0  0  0  0  0  0
   -9.4200    2.4524   26.2849 C   0  0  0  0  0  0  0  0  0  0  0  0
  -10.2590    3.4815   25.9250 C   0  0  0  0  0  0  0  0  0  0  0  0
   -8.3282    6.6990   27.1423 Cl  0  0  0  0  0  0  0  0  0  0  0  0
   -7.2545    1.6858   27.2735 C   0  0  0  0  0  0  0  0  0  0  0  0
   -7.5371    0.4079   27.1707 N   0  0  0  0  0  0  0  0  0  0  0  0
   -6.1371    1.9822   27.8177 O   0  0  0  0  0  0  0  0  0  0  0  0
   -6.6521   -0.6767   27.5529 C   0  0  0  0  0  0  0  0  0  0  0  0
   -7.2393   -1.6733   28.1220 C   0  0  0  0  0  0  0  0  0  0  0  0
  -11.4759    3.3630   25.1038 C   0  0  0  0  0  0  0  0  0  0  0  0
  -12.6251    3.3458   25.7869 C   0  0  0  0  0  0  0  0  0  0  0  0
  -12.7016    3.2189   27.1128 C   0  0  0  0  0  0  0  0  0  0  0  0
  -13.8857    3.4656   27.8947 C   0  0  0  0  0  0  0  0  0  0  0  0
  -13.8637    3.3824   29.3335 C   0  0  0  0  0  0  0  0  0  0  0  0
  -12.6024    3.1593   29.9713 C   0  0  0  0  0  0  0  0  0  0  0  0
  -11.4594    3.0629   29.1943 C   0  0  0  0  0  0  0  0  0  0  0  0
  -11.5091    3.1486   27.8777 C   0  0  0  0  0  0  0  0  0  0  0  0
   -6.7339   -2.1920   29.2893 C   0  0  0  0  0  0  0  0  0  0  0  0
   -5.3634   -1.8892   29.6857 C   0  0  0  0  0  0  0  0  0  0  0  0
   -4.7717   -0.7695   29.0075 C   0  0  0  0  0  0  0  0  0  0  0  0
   -5.4276   -0.1759   28.0718 C   0  0  0  0  0  0  0  0  0  0  0  0
  3  7  1  0
  2  8  1  0
  8  9  1  0
  8 10  2  0
  9 11  1  0
  6 13  1  0
 13 14  1  0
 14 15  1  0
 15 16  2  0
 16 17  1  0
 17 18  2  0
 18 19  1  0
 19 20  2  0
 20 15  1  0
 11 12  2  0
 12 21  1  0
 21 22  2  0
 22 23  1  0
 23 24  2  0
 24 11  1  0
  1  2  2  0
  2  5  1  0
  5  6  2  0
  6  4  1  0
  4  3  2  0
  3  1  1  0
M  END
$$$$
