No_8198-complexes_sdf/6BKW-FPZ/2024-09-17-14-21-01/
     RDKit          3D

 29 32  0  0  0  0  0  0  0  0999 V2000
   -7.7129    4.2099   27.0854 C   0  0  0  0  0  0  0  0  0  0  0  0
   -7.7814    5.1722   27.8972 C   0  0  0  0  0  0  0  0  0  0  0  0
   -7.2983    2.9533   27.5684 C   0  0  0  0  0  0  0  0  0  0  0  0
   -6.0337    2.9060   27.9106 C   0  0  0  0  0  0  0  0  0  0  0  0
   -8.3690    6.4367   27.4593 C   0  0  0  0  0  0  0  0  0  0  0  0
   -9.0204    6.4787   26.2055 C   0  0  0  0  0  0  0  0  0  0  0  0
   -8.6381    4.2862   25.9600 C   0  0  0  0  0  0  0  0  0  0  0  0
   -9.2601    5.4129   25.5678 C   0  0  0  0  0  0  0  0  0  0  0  0
   -5.3398    1.6280   28.1742 C   0  0  0  0  0  0  0  0  0  0  0  0
   -6.0475    0.4266   27.9378 C   0  0  0  0  0  0  0  0  0  0  0  0
   -7.7945    1.6878   27.0921 C   0  0  0  0  0  0  0  0  0  0  0  0
   -7.2855    0.5167   27.3471 C   0  0  0  0  0  0  0  0  0  0  0  0
   -5.3652   -0.8405   28.1744 C   0  0  0  0  0  0  0  0  0  0  0  0
   -5.9825   -1.9016   28.2391 C   0  0  0  0  0  0  0  0  0  0  0  0
   -7.4247   -1.8145   28.1804 C   0  0  0  0  0  0  0  0  0  0  0  0
   -8.0630   -0.6810   27.5355 C   0  0  0  0  0  0  0  0  0  0  0  0
  -10.1765    5.3527   24.1355 Cl  0  0  0  0  0  0  0  0  0  0  0  0
   -3.9133   -0.7806   28.6306 C   0  0  0  0  0  0  0  0  0  0  0  0
   -3.5681   -0.6363   29.9335 C   0  0  0  0  0  0  0  0  0  0  0  0
   -2.9674   -0.8896   27.5730 C   0  0  0  0  0  0  0  0  0  0  0  0
   -2.6475   -1.5591   30.5090 C   0  0  0  0  0  0  0  0  0  0  0  0
   -1.5322   -1.7589   29.5396 C   0  0  0  0  0  0  0  0  0  0  0  0
   -1.7870   -1.6936   28.1081 C   0  0  0  0  0  0  0  0  0  0  0  0
   -2.2623   -1.5091   31.8915 C   0  0  1  0  0  0  0  0  0  0  0  0
   -2.6999   -0.5875   32.7224 N   0  0  0  0  0  0  0  0  0  0  0  0
   -2.7857   -2.8875   32.4601 C   0  0  0  0  0  0  0  0  0  0  0  0
   -3.0575   -3.0012   33.5891 C   0  0  0  0  0  0  0  0  0  0  0  0
   -3.5432   -4.1086   34.0851 O   0  0  0  0  0  0  0  0  0  0  0  0
   -3.1877   -2.0084   34.5336 F   0  0  0  0  0  0  0  0  0  0  0  0
  1  3  1  0
  8 17  1  0
 13 18  1  0
 21 24  1  0
 24 25  1  1
 24 26  1  0
 26 27  1  0
 27 28  2  0
 27 29  1  0
 12 16  1  0
 16 15  2  0
 15 14  1  0
 14 13  2  0
 13 10  1  0
  3  4  2  0
  4  9  1  0
  9 10  2  0
 10 12  1  0
 12 11  2  0
 11  3  1  0
  1  2  2  0
  2  5  1  0
  5  6  2  0
  6  8  1  0
  8  7  2  0
  7  1  1  0
 18 19  2  0
 19 21  1  0
 21 22  2  0
 22 23  1  0
 23 20  2  0
 20 18  1  0
M  END
$$$$
