No_8948-complexes_sdf/6BKW-FPZ/2024-09-17-14-21-01/
     RDKit          3D

 15 15  0  0  0  0  0  0  0  0999 V2000
   -7.2496    3.8871   27.4508 C   0  0  0  0  0  0  0  0  0  0  0  0
   -8.5096    4.0291   27.2770 C   0  0  0  0  0  0  0  0  0  0  0  0
   -9.2677    5.1714   27.5773 C   0  0  0  0  0  0  0  0  0  0  0  0
   -9.2765    2.8248   26.8371 C   0  0  0  0  0  0  0  0  0  0  0  0
   -8.6731    1.7312   26.5464 C   0  0  0  0  0  0  0  0  0  0  0  0
   -6.5617    2.6972   27.3625 N   0  0  0  0  0  0  0  0  0  0  0  0
   -7.2402    1.6247   26.9809 C   0  0  0  0  0  0  0  0  0  0  0  0
  -10.3621    5.1602   28.0761 F   0  0  0  0  0  0  0  0  0  0  0  0
   -8.4951    6.0200   28.4634 F   0  0  0  0  0  0  0  0  0  0  0  0
   -9.1654    6.0155   26.4376 F   0  0  0  0  0  0  0  0  0  0  0  0
   -6.5621    0.4802   26.8161 N   0  0  0  0  0  0  0  0  0  0  0  0
   -5.5721    0.1385   27.7517 C   0  0  0  0  0  0  0  0  0  0  0  0
   -4.8799   -1.0882   27.6252 C   0  0  0  0  0  0  0  0  0  0  0  0
   -6.8993   -0.5217   26.0196 C   0  0  0  0  0  0  0  0  0  0  0  0
   -7.9752   -0.4399   25.2309 C   0  0  0  0  0  0  0  0  0  0  0  0
  2  3  1  0
  3  8  1  0
  3  9  1  0
  3 10  1  0
  7 11  1  0
 11 12  1  0
 12 13  2  0
 11 14  1  0
 14 15  1  0
  1  2  2  0
  2  4  1  0
  4  5  2  0
  5  7  1  0
  7  6  2  0
  6  1  1  0
M  END
$$$$
