No_8601-complexes_sdf/6BKW-FPZ/2024-09-17-14-21-01/
     RDKit          3D

 16 17  0  0  0  0  0  0  0  0999 V2000
   -7.7129    4.2099   27.0854 C   0  0  0  0  0  0  0  0  0  0  0  0
   -7.7814    5.1722   27.8972 C   0  0  0  0  0  0  0  0  0  0  0  0
   -8.8998    3.8713   26.3707 C   0  0  0  0  0  0  0  0  0  0  0  0
   -9.9938    4.6774   26.5446 C   0  0  0  0  0  0  0  0  0  0  0  0
   -8.7789    6.1536   27.9256 C   0  0  0  0  0  0  0  0  0  0  0  0
   -9.9428    5.8398   27.2296 C   0  0  0  0  0  0  0  0  0  0  0  0
   -8.7183    2.6009   25.5951 C   0  0  0  0  0  0  0  0  0  0  0  0
   -9.4350    1.6652   25.9708 N   0  0  0  0  0  0  0  0  0  0  0  0
   -9.2105    0.4695   25.6670 C   0  0  0  0  0  0  0  0  0  0  0  0
   -8.3922    0.0954   24.8755 C   0  0  0  0  0  0  0  0  0  0  0  0
  -10.0152   -0.6645   26.2914 C   0  0  0  0  0  0  0  0  0  0  0  0
   -9.8492   -1.7927   26.0804 C   0  0  0  0  0  0  0  0  0  0  0  0
   -8.0979   -1.2634   24.4784 C   0  0  0  0  0  0  0  0  0  0  0  0
   -8.8658   -2.2216   25.1357 C   0  0  0  0  0  0  0  0  0  0  0  0
  -10.6978    1.9153   26.8001 C   0  0  0  0  0  0  0  0  0  0  0  0
  -11.6640    1.1593   26.8517 C   0  0  0  0  0  0  0  0  0  0  0  0
  3  7  1  0
  7  8  1  0
  8  9  1  0
  8 15  1  0
 15 16  2  0
  9 10  2  0
 10 13  1  0
 13 14  2  0
 14 12  1  0
 12 11  2  0
 11  9  1  0
  1  2  2  0
  2  5  1  0
  5  6  2  0
  6  4  1  0
  4  3  2  0
  3  1  1  0
M  END
$$$$
