No_8260-complexes_sdf/6BKW-FPZ/2024-09-17-14-21-01/
     RDKit          3D

 21 22  0  0  0  0  0  0  0  0999 V2000
   -7.2496    3.8871   27.4508 C   0  0  0  0  0  0  0  0  0  0  0  0
   -7.9379    4.9063   27.8518 C   0  0  0  0  0  0  0  0  0  0  0  0
   -7.5112    6.1898   27.6280 C   0  0  0  0  0  0  0  0  0  0  0  0
   -7.8078    2.6331   27.2522 C   0  0  0  0  0  0  0  0  0  0  0  0
   -9.1846    2.4724   27.5426 C   0  0  0  0  0  0  0  0  0  0  0  0
   -9.9168    3.5155   28.0405 C   0  0  0  0  0  0  0  0  0  0  0  0
   -9.3366    4.7963   28.1727 C   0  0  0  0  0  0  0  0  0  0  0  0
  -11.3249    3.2653   28.4083 C   0  0  0  0  0  0  0  0  0  0  0  0
  -11.8069    2.0065   28.6522 C   0  0  0  0  0  0  0  0  0  0  0  0
  -12.2308    4.3950   28.5300 C   0  0  0  0  0  0  0  0  0  0  0  0
  -12.8717    1.5767   27.9340 C   0  0  0  0  0  0  0  0  0  0  0  0
  -14.0254    2.3934   28.1072 C   0  0  0  0  0  0  0  0  0  0  0  0
  -15.2722    2.1072   27.4441 C   0  0  0  0  0  0  0  0  0  0  0  0
  -13.5703    3.9452   27.9124 C   0  0  0  0  0  0  0  0  0  0  0  0
   -7.0432    1.4440   26.8693 C   0  0  0  0  0  0  0  0  0  0  0  0
   -7.5889    0.4904   26.0539 C   0  0  0  0  0  0  0  0  0  0  0  0
   -8.5803    0.7347   25.3138 C   0  0  0  0  0  0  0  0  0  0  0  0
   -9.1187   -0.1696   24.3403 C   0  0  0  0  0  0  0  0  0  0  0  0
  -10.2180    0.2553   23.5248 C   0  0  0  0  0  0  0  0  0  0  0  0
  -10.7397    1.5366   23.6728 C   0  0  0  0  0  0  0  0  0  0  0  0
  -10.2929    2.4193   24.6119 C   0  0  0  0  0  0  0  0  0  0  0  0
  6  8  1  0
  8  9  1  0
  8 10  1  0
  9 11  1  0
 11 12  1  0
 12 13  2  0
 10 14  1  0
 12 14  1  0
  4 15  1  0
 15 16  1  0
 16 17  2  3
 17 18  1  0
 18 19  2  3
 19 20  1  0
 20 21  2  0
  3  2  1  0
  1  2  2  0
  2  7  1  0
  7  6  2  0
  6  5  1  0
  5  4  2  0
  4  1  1  0
M  END
$$$$
