No_8025-complexes_sdf/6BKW-FPZ/2024-09-17-14-21-01/
     RDKit          3D

 28 32  0  0  0  0  0  0  0  0999 V2000
   -7.9040    3.9820   27.1177 C   0  0  0  0  0  0  0  0  0  0  0  0
   -9.0711    4.3164   27.0630 C   0  0  0  0  0  0  0  0  0  0  0  0
   -9.5294    5.4517   27.7215 C   0  0  0  0  0  0  0  0  0  0  0  0
   -7.4336    2.7132   26.5681 C   0  0  0  0  0  0  0  0  0  0  0  0
   -8.3353    1.8569   26.0442 C   0  0  0  0  0  0  0  0  0  0  0  0
   -9.6477    2.2853   25.9146 C   0  0  0  0  0  0  0  0  0  0  0  0
  -10.0346    3.4497   26.4483 C   0  0  0  0  0  0  0  0  0  0  0  0
   -7.8750    0.5509   25.5918 C   0  0  0  0  0  0  0  0  0  0  0  0
   -7.0299   -0.1710   26.4003 C   0  0  0  0  0  0  0  0  0  0  0  0
   -6.5725   -1.4255   26.0284 C   0  0  0  0  0  0  0  0  0  0  0  0
   -6.8887   -1.8339   24.7555 C   0  0  0  0  0  0  0  0  0  0  0  0
   -7.7677   -0.1468   24.4160 C   0  0  0  0  0  0  0  0  0  0  0  0
   -7.0765    4.7748   27.9179 N   0  0  0  0  0  0  0  0  0  0  0  0
   -7.5426    5.8539   28.3869 N   0  0  0  0  0  0  0  0  0  0  0  0
   -8.7100    6.2956   28.2891 C   0  0  0  0  0  0  0  0  0  0  0  0
  -10.5226    1.3920   25.1105 C   0  0  1  0  0  0  0  0  0  0  0  0
  -11.4928    0.7871   25.8895 C   0  0  0  0  0  0  0  0  0  0  0  0
  -11.1459    2.1796   23.9523 C   0  0  0  0  0  0  0  0  0  0  0  0
  -10.8980    1.8595   22.6615 C   0  0  0  0  0  0  0  0  0  0  0  0
  -11.3022    2.6726   21.6209 C   0  0  0  0  0  0  0  0  0  0  0  0
  -11.9727    3.8524   21.8601 C   0  0  0  0  0  0  0  0  0  0  0  0
  -12.1328    4.2567   23.1583 C   0  0  0  0  0  0  0  0  0  0  0  0
  -11.7078    3.5023   24.1798 C   0  0  0  0  0  0  0  0  0  0  0  0
  -12.4460    0.2605   25.6358 C   0  0  0  0  0  0  0  0  0  0  0  0
  -12.8854    0.1565   24.2188 C   0  0  0  0  0  0  0  0  0  0  0  0
  -13.7404   -0.5123   23.9196 C   0  0  0  0  0  0  0  0  0  0  0  0
  -14.6460   -1.0638   24.8287 C   0  0  0  0  0  0  0  0  0  0  0  0
  -13.4968   -0.5149   26.3083 C   0  0  0  0  0  0  0  0  0  0  0  0
  1  4  1  0
  4  5  1  0
  5  6  1  0
  2  7  1  0
  6  7  1  0
  5  8  1  0
  8  9  2  0
  9 10  1  0
 10 11  2  0
  8 12  1  0
 11 12  1  0
 16  6  1  1
 16 17  1  0
 16 18  1  0
 17 24  2  3
 24 25  1  0
 25 26  2  0
 26 27  1  0
 24 28  1  0
 27 28  2  0
 18 19  2  0
 19 20  1  0
 20 21  2  0
 21 22  1  0
 22 23  2  0
 23 18  1  0
  1  2  1  0
  2  3  2  0
  3 15  1  0
 15 14  2  0
 14 13  1  0
 13  1  2  0
M  END
$$$$
