No_8566-complexes_sdf/6BKW-FPZ/2024-09-17-14-21-01/
     RDKit          3D

 16 16  0  0  0  0  0  0  0  0999 V2000
   -7.7129    4.2099   27.0854 C   0  0  0  0  0  0  0  0  0  0  0  0
   -7.7814    5.1722   27.8972 C   0  0  0  0  0  0  0  0  0  0  0  0
   -8.8998    3.8713   26.3707 C   0  0  0  0  0  0  0  0  0  0  0  0
   -9.9938    4.6774   26.5446 C   0  0  0  0  0  0  0  0  0  0  0  0
   -8.7789    6.1536   27.9256 C   0  0  0  0  0  0  0  0  0  0  0  0
   -9.9428    5.8398   27.2296 C   0  0  0  0  0  0  0  0  0  0  0  0
   -8.9208    2.6404   25.5721 C   0  0  0  0  0  0  0  0  0  0  0  0
   -9.7377    1.6978   26.0657 C   0  0  0  0  0  0  0  0  0  0  0  0
   -9.7610    0.4181   25.4011 C   0  0  0  0  0  0  0  0  0  0  0  0
   -9.0390    0.2538   24.3390 C   0  0  0  0  0  0  0  0  0  0  0  0
   -9.3249    0.3651   23.3352 C   0  0  0  0  0  0  0  0  0  0  0  0
  -10.4997    0.8833   22.9027 C   0  0  0  0  0  0  0  0  0  0  0  0
  -10.8020    1.0927   21.4356 C   0  0  0  0  0  0  0  0  0  0  0  0
  -11.7834    1.8819   21.0250 C   0  0  0  0  0  0  0  0  0  0  0  0
  -12.6524    2.4664   21.9579 C   0  0  0  0  0  0  0  0  0  0  0  0
  -12.4290    2.3498   23.2889 C   0  0  0  0  0  0  0  0  0  0  0  0
  3  7  1  0
  7  8  2  3
  8  9  1  0
  9 10  1  0
 10 11  1  0
 11 12  2  3
 12 13  1  0
 13 14  2  3
 14 15  1  0
 15 16  2  0
  1  2  2  0
  2  5  1  0
  5  6  2  0
  6  4  1  0
  4  3  2  0
  3  1  1  0
M  END
$$$$
