No_8114-complexes_sdf/6BKW-FPZ/2024-09-17-14-21-01/
     RDKit          3D

 14 15  0  0  0  0  0  0  0  0999 V2000
   -7.9040    3.9820   27.1177 C   0  0  0  0  0  0  0  0  0  0  0  0
   -9.0711    4.3164   27.0630 C   0  0  0  0  0  0  0  0  0  0  0  0
   -9.5182    5.5541   27.5777 C   0  0  0  0  0  0  0  0  0  0  0  0
   -6.9424    4.7983   27.8424 C   0  0  0  0  0  0  0  0  0  0  0  0
   -7.3526    5.9739   28.3909 C   0  0  0  0  0  0  0  0  0  0  0  0
   -8.6479    6.3742   28.2169 C   0  0  0  0  0  0  0  0  0  0  0  0
  -10.2021    3.5782   26.4472 C   0  0  0  0  0  0  0  0  0  0  0  0
  -10.5648    3.5707   25.2641 C   0  0  0  0  0  0  0  0  0  0  0  0
  -11.5353    2.8826   24.6157 C   0  0  0  0  0  0  0  0  0  0  0  0
  -12.1202    1.8751   25.3825 C   0  0  0  0  0  0  0  0  0  0  0  0
  -10.8935    2.4393   27.1432 C   0  0  0  0  0  0  0  0  0  0  0  0
  -11.8194    1.6635   26.6971 C   0  0  0  0  0  0  0  0  0  0  0  0
   -9.8188    4.8842   24.2110 Cl  0  0  0  0  0  0  0  0  0  0  0  0
   -7.3374    2.4249   26.6193 Cl  0  0  0  0  0  0  0  0  0  0  0  0
  2  7  1  0
  8 13  1  0
  1 14  1  0
  7  8  2  0
  8  9  1  0
  9 10  2  0
 10 12  1  0
 12 11  2  0
 11  7  1  0
  1  2  2  0
  2  3  1  0
  3  6  2  0
  6  5  1  0
  5  4  2  0
  4  1  1  0
M  END
$$$$
