No_8810-complexes_sdf/6BKW-FPZ/2024-09-17-14-21-01/
     RDKit          3D

 40 43  0  0  0  0  0  0  0  0999 V2000
   -7.9040    3.9820   27.1177 C   0  0  0  0  0  0  0  0  0  0  0  0
   -8.2057    2.8231   26.8733 C   0  0  0  0  0  0  0  0  0  0  0  0
   -7.4766    1.7477   27.4593 C   0  0  0  0  0  0  0  0  0  0  0  0
   -8.7468    5.1251   26.6967 C   0  0  0  0  0  0  0  0  0  0  0  0
   -9.7234    4.8589   25.8202 C   0  0  0  0  0  0  0  0  0  0  0  0
   -9.9711    3.5858   25.4266 C   0  0  0  0  0  0  0  0  0  0  0  0
   -9.2266    2.4957   25.9600 C   0  0  0  0  0  0  0  0  0  0  0  0
   -6.1127    1.9030   27.8472 C   0  0  0  0  0  0  0  0  0  0  0  0
   -5.3493    0.8225   28.3589 C   0  0  0  0  0  0  0  0  0  0  0  0
   -5.5902   -0.2318   28.1598 C   0  0  0  0  0  0  0  0  0  0  0  0
   -7.8066    0.3743   27.3110 C   0  0  0  0  0  0  0  0  0  0  0  0
   -6.9807   -0.6212   27.7838 C   0  0  0  0  0  0  0  0  0  0  0  0
   -8.4126    6.5093   27.1083 C   0  0  0  0  0  0  0  0  0  0  0  0
   -8.1830    6.7367   28.2757 O   0  0  0  0  0  0  0  0  0  0  0  0
   -8.5495    7.4813   26.2589 O   0  0  0  0  0  0  0  0  0  0  0  0
   -3.7055    1.3923   28.8634 Cl  0  0  0  0  0  0  0  0  0  0  0  0
  -11.0110    3.3087   24.4278 C   0  0  0  0  0  0  0  0  0  0  0  0
  -11.0208    3.8927   23.4493 N   0  0  0  0  0  0  0  0  0  0  0  0
  -10.6653    3.8896   22.3679 C   0  0  0  0  0  0  0  0  0  0  0  0
  -10.0054    2.8003   21.8381 C   0  0  0  0  0  0  0  0  0  0  0  0
  -11.0574    4.8030   21.4330 O   0  0  0  0  0  0  0  0  0  0  0  0
  -11.7744    2.3228   24.5693 O   0  0  0  0  0  0  0  0  0  0  0  0
   -7.6411   -1.8920   27.7631 C   0  0  0  0  0  0  0  0  0  0  0  0
   -7.3937   -2.8041   28.3598 C   0  0  0  0  0  0  0  0  0  0  0  0
   -6.3990   -2.7487   29.5059 C   0  0  0  0  0  0  0  0  0  0  0  0
   -5.2855   -3.4114   29.2315 C   0  0  0  0  0  0  0  0  0  0  0  0
   -4.9497   -4.1949   29.9884 C   0  0  0  0  0  0  0  0  0  0  0  0
   -5.2906   -4.1713   31.4702 C   0  0  0  0  0  0  0  0  0  0  0  0
   -6.4277   -3.3676   31.7674 C   0  0  0  0  0  0  0  0  0  0  0  0
   -7.0078   -2.5871   30.8285 C   0  0  0  0  0  0  0  0  0  0  0  0
   -8.7680   -1.9984   26.8072 C   0  0  0  0  0  0  0  0  0  0  0  0
   -9.3866   -3.0580   26.8566 C   0  0  0  0  0  0  0  0  0  0  0  0
   -8.3177   -3.8666   28.2450 C   0  0  0  0  0  0  0  0  0  0  0  0
  -10.3736   -3.8925   26.3500 C   0  0  0  0  0  0  0  0  0  0  0  0
  -10.6269   -4.9731   26.5997 O   0  0  0  0  0  0  0  0  0  0  0  0
  -10.8626   -3.3320   25.1933 O   0  0  0  0  0  0  0  0  0  0  0  0
  -11.8436   -3.4848   24.7564 C   0  0  0  0  0  0  0  0  0  0  0  0
  -12.1529   -2.9101   23.6511 C   0  0  0  0  0  0  0  0  0  0  0  0
  -11.3849   -2.4330   22.8791 F   0  0  0  0  0  0  0  0  0  0  0  0
  -13.0299   -1.7621   23.8845 F   0  0  0  0  0  0  0  0  0  0  0  0
  2  3  1  0
  4 13  1  0
 13 14  2  0
 13 15  1  0
  9 16  1  0
  6 17  1  0
 17 18  1  0
 18 19  1  0
 19 20  1  0
 19 21  2  0
 17 22  2  0
 12 23  1  0
 23 24  2  0
 24 25  1  0
 23 31  1  0
 31 32  2  0
 24 33  1  0
 32 33  1  0
 32 34  1  0
 34 35  2  0
 34 36  1  0
 36 37  1  0
 37 38  1  0
 38 39  1  0
 38 40  1  0
 25 26  2  0
 26 27  1  0
 27 28  2  0
 28 29  1  0
 29 30  2  0
 30 25  1  0
  3  8  2  0
  8  9  1  0
  9 10  2  0
 10 12  1  0
 12 11  2  0
 11  3  1  0
  1  2  2  0
  2  7  1  0
  7  6  2  0
  6  5  1  0
  5  4  2  0
  4  1  1  0
M  END
$$$$
