No_8631-complexes_sdf/6BKW-FPZ/2024-09-17-14-21-01/
     RDKit          3D

 33 36  0  0  0  0  0  0  0  0999 V2000
   -7.9040    3.9820   27.1177 C   0  0  0  0  0  0  0  0  0  0  0  0
   -8.2057    2.8231   26.8733 C   0  0  0  0  0  0  0  0  0  0  0  0
   -8.7695    5.0740   26.7916 C   0  0  0  0  0  0  0  0  0  0  0  0
   -9.9618    4.7598   26.1630 C   0  0  0  0  0  0  0  0  0  0  0  0
   -9.4200    2.4524   26.2849 C   0  0  0  0  0  0  0  0  0  0  0  0
  -10.2590    3.4815   25.9250 C   0  0  0  0  0  0  0  0  0  0  0  0
   -8.1804    6.4174   27.1235 C   0  0  0  0  0  0  0  0  0  0  0  0
   -8.9656    7.5322   26.8904 N   0  0  0  0  0  0  0  0  0  0  0  0
   -7.0700    6.4722   27.7071 O   0  0  0  0  0  0  0  0  0  0  0  0
   -7.3047    1.3457   27.3060 Cl  0  0  0  0  0  0  0  0  0  0  0  0
  -11.5407    3.2191   25.2011 C   0  0  1  0  0  0  0  0  0  0  0  0
  -11.4305    2.4799   24.0550 C   0  0  0  0  0  0  0  0  0  0  0  0
  -12.4176    2.4129   23.2209 C   0  0  0  0  0  0  0  0  0  0  0  0
  -12.3543    1.6067   21.9683 C   0  0  0  0  0  0  0  0  0  0  0  0
  -11.1358    0.9358   21.7034 C   0  0  0  0  0  0  0  0  0  0  0  0
  -10.0425    1.0503   22.5764 C   0  0  0  0  0  0  0  0  0  0  0  0
  -10.1437    1.7944   23.6737 C   0  0  0  0  0  0  0  0  0  0  0  0
  -12.7202    3.6542   25.7586 C   0  0  0  0  0  0  0  0  0  0  0  0
  -13.0835    3.6640   27.0087 C   0  0  0  0  0  0  0  0  0  0  0  0
  -12.3578    3.2075   28.0424 C   0  0  0  0  0  0  0  0  0  0  0  0
  -12.6927    2.8472   29.2087 C   0  0  0  0  0  0  0  0  0  0  0  0
  -13.9176    3.4026   29.7569 C   0  0  0  0  0  0  0  0  0  0  0  0
  -14.7528    4.0337   28.7970 C   0  0  0  0  0  0  0  0  0  0  0  0
  -14.3985    4.1737   27.4668 C   0  0  0  0  0  0  0  0  0  0  0  0
  -14.2994    3.2851   31.1765 C   0  0  1  0  0  0  0  0  0  0  0  0
  -13.8819    4.3986   31.8878 C   0  0  0  0  0  0  0  0  0  0  0  0
  -14.4220    5.3246   32.2437 C   0  0  0  0  0  0  0  0  0  0  0  0
  -13.9464    6.1697   33.4128 C   0  0  0  0  0  0  0  0  0  0  0  0
  -13.0128    5.5931   34.2272 C   0  0  0  0  0  0  0  0  0  0  0  0
  -12.4331    4.3453   33.8946 C   0  0  0  0  0  0  0  0  0  0  0  0
  -12.5816    4.1103   32.5057 C   0  0  0  0  0  0  0  0  0  0  0  0
  -15.2048    2.2853   31.4773 C   0  0  0  0  0  0  0  0  0  0  0  0
  -16.1561    2.3379   32.3143 C   0  0  0  0  0  0  0  0  0  0  0  0
  3  7  1  0
  7  8  1  0
  7  9  2  0
  2 10  1  0
  6 11  1  0
 11 12  1  0
 11 18  1  1
 18 19  1  0
 22 25  1  0
 25 26  1  0
 25 32  1  6
 32 33  2  0
 12 13  2  0
 13 14  1  0
 14 15  2  0
 15 16  1  0
 16 17  2  0
 17 12  1  0
  1  2  2  0
  2  5  1  0
  5  6  2  0
  6  4  1  0
  4  3  2  0
  3  1  1  0
 19 20  2  0
 20 21  1  0
 21 22  2  0
 22 23  1  0
 23 24  2  0
 24 19  1  0
 26 27  2  0
 27 28  1  0
 28 29  2  0
 29 30  1  0
 30 31  2  0
 31 26  1  0
M  END
$$$$
