No_8038-complexes_sdf/6BKW-FPZ/2024-09-17-14-21-01/
     RDKit          3D

 19 20  0  0  0  0  0  0  0  0999 V2000
   -7.7129    4.2099   27.0854 C   0  0  2  0  0  0  0  0  0  0  0  0
   -8.2112    3.0637   26.9225 C   0  0  0  0  0  0  0  0  0  0  0  0
   -9.4446    2.8304   26.1868 C   0  0  0  0  0  0  0  0  0  0  0  0
   -6.6388    4.5347   28.1122 C   0  0  0  0  0  0  0  0  0  0  0  0
   -9.9906    1.5071   26.0590 C   0  0  0  0  0  0  0  0  0  0  0  0
   -9.2595    0.4699   26.6610 C   0  0  0  0  0  0  0  0  0  0  0  0
   -8.1435    0.6276   27.3940 C   0  0  0  0  0  0  0  0  0  0  0  0
   -7.6037    1.9863   27.5259 C   0  0  0  0  0  0  0  0  0  0  0  0
   -8.6876    5.3956   27.0164 C   0  0  0  0  0  0  0  0  0  0  0  0
   -8.1284    6.7450   27.0581 C   0  0  0  0  0  0  0  0  0  0  0  0
   -8.9689    7.8233   26.7334 C   0  0  0  0  0  0  0  0  0  0  0  0
  -11.0750    1.2962   25.3224 O   0  0  0  0  0  0  0  0  0  0  0  0
  -12.2397    1.6854   25.6611 C   0  0  0  0  0  0  0  0  0  0  0  0
  -12.5819    1.9055   26.8458 C   0  0  0  0  0  0  0  0  0  0  0  0
  -12.5135    1.3278   27.8317 C   0  0  0  0  0  0  0  0  0  0  0  0
  -12.8374    1.6599   29.2572 C   0  0  0  0  0  0  0  0  0  0  0  0
  -13.3430    2.9672   29.4315 C   0  0  0  0  0  0  0  0  0  0  0  0
  -13.4576    3.7915   28.3447 C   0  0  0  0  0  0  0  0  0  0  0  0
  -13.0672    3.3949   27.0665 C   0  0  0  0  0  0  0  0  0  0  0  0
  1  4  1  1
  1  9  1  0
  9 10  2  3
 10 11  1  0
  5 12  1  0
 12 13  1  0
 13 14  1  0
  1  2  1  0
 14 15  2  0
 15 16  1  0
 16 17  2  0
 17 18  1  0
 18 19  2  0
 19 14  1  0
  2  3  2  0
  3  5  1  0
  5  6  2  0
  6  7  1  0
  7  8  2  0
  8  2  1  0
M  END
$$$$
