No_8972-complexes_sdf/6BKW-FPZ/2024-09-17-14-21-01/
     RDKit          3D

 17 18  0  0  0  0  0  0  0  0999 V2000
   -7.7129    4.2099   27.0854 C   0  0  0  0  0  0  0  0  0  0  0  0
   -8.9133    4.4736   27.0998 C   0  0  0  0  0  0  0  0  0  0  0  0
   -9.7937    3.7368   26.2091 C   0  0  0  0  0  0  0  0  0  0  0  0
   -6.8266    5.0441   28.0594 C   0  0  0  0  0  0  0  0  0  0  0  0
   -9.2322    2.6276   25.6126 C   0  0  0  0  0  0  0  0  0  0  0  0
   -7.9794    2.1924   25.9863 C   0  0  0  0  0  0  0  0  0  0  0  0
   -7.2411    2.9387   26.9009 C   0  0  0  0  0  0  0  0  0  0  0  0
  -10.0894    1.7793   24.7540 C   0  0  0  0  0  0  0  0  0  0  0  0
  -10.0282    2.1971   23.3715 C   0  0  0  0  0  0  0  0  0  0  0  0
  -10.1318    3.4632   22.9469 C   0  0  0  0  0  0  0  0  0  0  0  0
  -10.2429    3.8922   21.6365 C   0  0  0  0  0  0  0  0  0  0  0  0
  -10.0502    2.8986   20.6707 C   0  0  0  0  0  0  0  0  0  0  0  0
   -9.9014    1.2407   22.3375 C   0  0  0  0  0  0  0  0  0  0  0  0
   -9.6935   -0.1458   22.6530 C   0  0  0  0  0  0  0  0  0  0  0  0
   -9.8721    1.6342   20.9845 C   0  0  0  0  0  0  0  0  0  0  0  0
   -8.9958   -0.8042   22.9987 C   0  0  0  0  0  0  0  0  0  0  0  0
   -9.0095   -2.2770   23.1815 C   0  0  0  0  0  0  0  0  0  0  0  0
  1  4  1  0
  5  8  1  0
  8  9  1  0
 13 14  1  0
 14 16  2  3
 16 17  1  0
  9 10  2  0
 10 11  1  0
 11 12  2  0
 12 15  1  0
 15 13  2  0
 13  9  1  0
  1  2  2  0
  2  3  1  0
  3  5  2  0
  5  6  1  0
  6  7  2  0
  7  1  1  0
M  END
$$$$
