No_8346-complexes_sdf/6BKW-FPZ/2024-09-17-14-21-01/
     RDKit          3D

 28 31  0  0  0  0  0  0  0  0999 V2000
   -7.7129    4.2099   27.0854 C   0  0  0  0  0  0  0  0  0  0  0  0
   -7.7814    5.1722   27.8972 C   0  0  0  0  0  0  0  0  0  0  0  0
   -8.8255    3.2789   27.1191 C   0  0  2  0  0  0  0  0  0  0  0  0
   -8.7530    2.0643   26.3119 C   0  0  1  0  0  0  0  0  0  0  0  0
   -7.6193    1.3092   26.4290 C   0  0  0  0  0  0  0  0  0  0  0  0
   -6.4967    1.8988   27.1623 C   0  0  2  0  0  0  0  0  0  0  0  0
   -6.4808    3.2746   27.5519 C   0  0  0  0  0  0  0  0  0  0  0  0
  -10.0316    3.6913   27.7418 C   0  0  0  0  0  0  0  0  0  0  0  0
  -10.6261    2.8853   28.6040 C   0  0  0  0  0  0  0  0  0  0  0  0
  -10.6435    4.9598   27.5786 C   0  0  0  0  0  0  0  0  0  0  0  0
  -11.9229    3.1444   29.1459 C   0  0  0  0  0  0  0  0  0  0  0  0
  -11.9162    5.2985   28.0524 C   0  0  0  0  0  0  0  0  0  0  0  0
  -12.5159    4.3799   28.8573 C   0  0  0  0  0  0  0  0  0  0  0  0
   -5.2710    1.1022   27.4060 C   0  0  0  0  0  0  0  0  0  0  0  0
   -5.2911    0.3436   28.6561 C   0  0  0  0  0  0  0  0  0  0  0  0
   -4.0684    0.1355   29.3356 C   0  0  0  0  0  0  0  0  0  0  0  0
   -3.3202   -0.5441   29.2556 C   0  0  0  0  0  0  0  0  0  0  0  0
   -3.1035   -1.4019   28.2003 C   0  0  0  0  0  0  0  0  0  0  0  0
   -3.9836   -1.6836   27.4255 C   0  0  0  0  0  0  0  0  0  0  0  0
   -5.9267   -0.8660   28.4874 C   0  0  0  0  0  0  0  0  0  0  0  0
   -5.3217   -1.7029   27.4860 C   0  0  0  0  0  0  0  0  0  0  0  0
   -9.8498    1.6469   25.5432 C   0  0  1  0  0  0  0  0  0  0  0  0
  -10.7739    2.0015   25.2329 C   0  0  0  0  0  0  0  0  0  0  0  0
  -11.7190    1.5121   24.3540 C   0  0  0  0  0  0  0  0  0  0  0  0
  -11.3674    0.3375   23.7517 C   0  0  0  0  0  0  0  0  0  0  0  0
   -9.6313    0.3305   24.6822 C   0  0  0  0  0  0  0  0  0  0  0  0
  -10.2244   -0.2080   23.9444 C   0  0  0  0  0  0  0  0  0  0  0  0
   -9.8656   -1.4452   23.1729 C   0  0  0  0  0  0  0  0  0  0  0  0
  1  2  2  0
  1  3  1  0
  3  4  1  0
  4  5  1  1
  5  6  1  0
  1  7  1  0
  6  7  1  0
  3  8  1  6
  6 14  1  6
 14 15  1  0
 15 16  2  0
 16 17  1  0
 17 18  1  0
 18 19  2  0
 15 20  1  0
 19 21  1  0
 20 21  2  0
  4 22  1  0
 22 23  1  6
 23 24  2  0
 24 25  1  0
 22 26  1  0
 25 26  2  0
 26 27  1  0
 27 28  1  0
  8  9  2  0
  9 11  1  0
 11 13  2  0
 13 12  1  0
 12 10  2  0
 10  8  1  0
M  END
$$$$
