No_8458-complexes_sdf/6BKW-FPZ/2024-09-17-14-21-01/
     RDKit          3D

 37 42  0  0  0  0  0  0  0  0999 V2000
   -7.7129    4.2099   27.0854 C   0  0  0  0  0  0  0  0  0  0  0  0
   -7.7814    5.1722   27.8972 C   0  0  0  0  0  0  0  0  0  0  0  0
   -7.2983    2.9533   27.5684 C   0  0  0  0  0  0  0  0  0  0  0  0
   -7.6908    1.8111   26.9553 C   0  0  0  0  0  0  0  0  0  0  0  0
   -8.6533    1.9165   25.9430 C   0  0  0  0  0  0  0  0  0  0  0  0
   -9.2376    3.0581   25.6387 C   0  0  0  0  0  0  0  0  0  0  0  0
   -8.8901    4.1760   26.2867 C   0  0  0  0  0  0  0  0  0  0  0  0
   -8.2530    6.3165   27.8141 N   0  0  0  0  0  0  0  0  0  0  0  0
   -9.2375    6.5945   26.8434 C   0  0  0  0  0  0  0  0  0  0  0  0
   -9.5601    5.4557   26.0132 C   0  0  0  0  0  0  0  0  0  0  0  0
   -7.0239    0.5274   27.2099 C   0  0  0  0  0  0  0  0  0  0  0  0
   -5.8067    0.4804   27.9051 C   0  0  0  0  0  0  0  0  0  0  0  0
   -5.1937   -0.7310   28.2008 C   0  0  0  0  0  0  0  0  0  0  0  0
   -5.8360   -1.8772   27.8524 C   0  0  0  0  0  0  0  0  0  0  0  0
   -7.4356   -0.7841   27.0215 C   0  0  0  0  0  0  0  0  0  0  0  0
   -6.9887   -1.8891   27.3253 C   0  0  0  0  0  0  0  0  0  0  0  0
   -3.8390   -0.6483   28.9285 C   0  0  0  0  0  0  0  0  0  0  0  0
   -3.3388   -0.5490   29.8964 C   0  0  0  0  0  0  0  0  0  0  0  0
   -2.6936   -0.9647   27.8802 C   0  0  0  0  0  0  0  0  0  0  0  0
   -4.2298   -0.0456   31.1181 C   0  0  0  0  0  0  0  0  0  0  0  0
   -1.5857   -1.1324   28.2996 C   0  0  0  0  0  0  0  0  0  0  0  0
   -1.0634   -0.9312   29.5762 C   0  0  0  0  0  0  0  0  0  0  0  0
   -2.0099   -0.6208   30.4516 C   0  0  0  0  0  0  0  0  0  0  0  0
   -4.8553   -0.9261   31.8895 N   0  0  0  0  0  0  0  0  0  0  0  0
   -5.5691   -1.8525   31.5462 C   0  0  0  0  0  0  0  0  0  0  0  0
   -6.3250   -2.5870   32.5098 C   0  0  0  0  0  0  0  0  0  0  0  0
   -7.3616   -3.4238   32.3246 C   0  0  0  0  0  0  0  0  0  0  0  0
   -4.7444   -1.0200   33.2671 C   0  0  0  0  0  0  0  0  0  0  0  0
   -5.7889   -1.8538   33.6527 C   0  0  0  0  0  0  0  0  0  0  0  0
   -7.9346   -4.0266   32.8851 C   0  0  0  0  0  0  0  0  0  0  0  0
   -9.1356   -4.9195   32.5309 C   0  0  0  0  0  0  0  0  0  0  0  0
   -9.3946   -4.9311   31.1701 C   0  0  0  0  0  0  0  0  0  0  0  0
   -8.6804   -4.1728   30.3100 C   0  0  0  0  0  0  0  0  0  0  0  0
   -7.6993   -3.3734   30.7513 C   0  0  0  0  0  0  0  0  0  0  0  0
   -6.1109   -2.1873   35.0637 C   0  0  0  0  0  0  0  0  0  0  0  0
   -5.5550   -1.4926   35.9282 O   0  0  0  0  0  0  0  0  0  0  0  0
   -7.2518   -2.7790   35.3804 O   0  0  0  0  0  0  0  0  0  0  0  0
  4 11  1  0
 13 17  1  0
 18 20  1  0
 20 24  1  0
 24 25  1  0
 25 26  2  0
 26 27  1  0
 24 28  1  0
 26 29  1  0
 28 29  2  0
 29 35  1  0
 35 36  2  0
 35 37  1  0
  1  2  2  0
  2  8  1  0
  8  9  2  0
  9 10  1  0
 10  7  2  0
 27 30  2  0
 30 31  1  0
 31 32  2  0
 32 33  1  0
 33 34  2  0
 34 27  1  0
  1  3  1  0
  3  4  2  0
  4  5  1  0
  5  6  2  0
  6  7  1  0
  7  1  1  0
 17 18  2  0
 18 23  1  0
 23 22  2  0
 22 21  1  0
 21 19  2  0
 19 17  1  0
 11 12  2  0
 12 13  1  0
 13 14  2  0
 14 16  1  0
 16 15  2  0
 15 11  1  0
M  END
$$$$
