No_8807-complexes_sdf/6BKW-FPZ/2024-09-17-14-21-01/
     RDKit          3D

 17 19  0  0  0  0  0  0  0  0999 V2000
   -7.2496    3.8871   27.4508 C   0  0  0  0  0  0  0  0  0  0  0  0
   -8.5096    4.0291   27.2770 C   0  0  2  0  0  0  0  0  0  0  0  0
   -9.2677    5.1714   27.5773 C   0  0  0  0  0  0  0  0  0  0  0  0
   -9.2765    2.8248   26.8371 C   0  0  0  0  0  0  0  0  0  0  0  0
  -10.4623    3.0171   26.3237 C   0  0  0  0  0  0  0  0  0  0  0  0
  -11.3015    3.9610   26.8543 C   0  0  0  0  0  0  0  0  0  0  0  0
  -11.0582    4.4596   28.0103 C   0  0  0  0  0  0  0  0  0  0  0  0
   -6.4321    3.1258   27.8605 N   0  0  0  0  0  0  0  0  0  0  0  0
   -6.7524    1.8225   27.9151 C   0  0  0  0  0  0  0  0  0  0  0  0
   -5.5937    0.8865   28.1133 C   0  0  0  0  0  0  0  0  0  0  0  0
   -5.7799   -0.4437   28.3222 C   0  0  0  0  0  0  0  0  0  0  0  0
   -6.7084   -0.9270   28.1657 C   0  0  0  0  0  0  0  0  0  0  0  0
   -7.9590   -0.2238   27.6803 C   0  0  0  0  0  0  0  0  0  0  0  0
   -7.8638    1.1425   27.6048 C   0  0  0  0  0  0  0  0  0  0  0  0
   -8.6785    1.5861   26.9443 C   0  0  1  0  0  0  0  0  0  0  0  0
   -9.8244    0.7307   26.7318 O   0  0  0  0  0  0  0  0  0  0  0  0
   -9.6926   -0.2853   26.4552 C   0  0  0  0  0  0  0  0  0  0  0  0
  1  2  1  0
  2  3  1  1
  2  4  1  0
  4  5  1  0
  5  6  1  0
  3  7  1  0
  6  7  1  0
  1  8  2  0
  8  9  1  0
  4 15  1  0
 14 15  1  0
 15 16  1  1
 16 17  1  0
  9 10  2  0
 10 11  1  0
 11 12  2  0
 12 13  1  0
 13 14  2  0
 14  9  1  0
M  END
$$$$
