No_8316-complexes_sdf/6BKW-FPZ/2024-09-17-14-21-01/
     RDKit          3D

 35 38  0  0  0  0  0  0  0  0999 V2000
   -7.7129    4.2099   27.0854 C   0  0  0  0  0  0  0  0  0  0  0  0
   -7.7814    5.1722   27.8972 C   0  0  0  0  0  0  0  0  0  0  0  0
   -8.8776    3.8408   26.3416 C   0  0  0  0  0  0  0  0  0  0  0  0
   -9.9844    4.6492   26.4743 C   0  0  0  0  0  0  0  0  0  0  0  0
   -8.8033    6.1375   27.8728 C   0  0  0  0  0  0  0  0  0  0  0  0
   -9.9554    5.8280   27.1736 C   0  0  0  0  0  0  0  0  0  0  0  0
   -8.8752    2.6155   25.5663 C   0  0  0  0  0  0  0  0  0  0  0  0
   -8.2641    1.5329   26.1081 N   0  0  0  0  0  0  0  0  0  0  0  0
   -8.1165    0.3525   25.4938 C   0  0  0  0  0  0  0  0  0  0  0  0
   -7.2053   -0.5534   26.0205 C   0  0  0  0  0  0  0  0  0  0  0  0
   -6.4634   -0.2243   27.2119 C   0  0  0  0  0  0  0  0  0  0  0  0
   -5.5553   -1.1331   27.7978 C   0  0  0  0  0  0  0  0  0  0  0  0
   -4.8811   -0.7003   29.0072 C   0  0  0  0  0  0  0  0  0  0  0  0
   -4.7141    0.7101   29.1838 C   0  0  0  0  0  0  0  0  0  0  0  0
   -5.3576    1.6287   28.3652 C   0  0  0  0  0  0  0  0  0  0  0  0
   -6.2079    1.1956   27.4174 C   0  0  0  0  0  0  0  0  0  0  0  0
   -7.9237    1.6360   27.5175 C   0  0  0  0  0  0  0  0  0  0  0  0
   -9.2638    2.6128   24.3884 O   0  0  0  0  0  0  0  0  0  0  0  0
   -4.0067   -1.5998   29.7631 C   0  0  0  0  0  0  0  0  0  0  0  0
   -3.1204   -2.1968   29.2982 C   0  0  0  0  0  0  0  0  0  0  0  0
   -2.6701   -1.9789   27.8754 C   0  0  1  0  0  0  0  0  0  0  0  0
   -2.8124   -1.1348   27.1793 N   0  0  0  0  0  0  0  0  0  0  0  0
   -3.1133   -1.1290   25.8891 C   0  0  0  0  0  0  0  0  0  0  0  0
   -1.7104   -0.0183   27.3075 C   0  0  0  0  0  0  0  0  0  0  0  0
   -1.6496   -3.2992   27.2427 P   0  0  0  0  0  0  0  0  0  0  0  0
   -2.6234   -3.9921   26.3900 O   0  0  0  0  0  0  0  0  0  0  0  0
   -1.2833   -4.1897   28.4126 O   0  0  0  0  0  0  0  0  0  0  0  0
   -0.5372   -2.6973   26.5576 O   0  0  0  0  0  0  0  0  0  0  0  0
   -4.9306   -2.1933   30.8106 C   0  0  0  0  0  0  0  0  0  0  0  0
   -4.2719   -2.6802   31.8364 C   0  0  0  0  0  0  0  0  0  0  0  0
   -4.7788   -2.3317   33.1442 C   0  0  0  0  0  0  0  0  0  0  0  0
   -6.1860   -2.1292   33.3488 C   0  0  0  0  0  0  0  0  0  0  0  0
   -6.8433   -1.7265   32.1365 C   0  0  0  0  0  0  0  0  0  0  0  0
   -6.2098   -1.6425   30.9691 C   0  0  0  0  0  0  0  0  0  0  0  0
   -6.9537   -2.1623   34.8283 Cl  0  0  0  0  0  0  0  0  0  0  0  0
  3  7  1  0
  7  8  1  0
  8  9  1  0
 10 11  1  0
  8 17  1  0
 16 17  1  0
  7 18  2  0
 13 19  1  0
 19 20  2  3
 20 21  1  0
 21 22  1  1
 22 23  1  0
 22 24  1  0
 21 25  1  0
 25 26  2  0
 25 27  1  0
 25 28  1  0
 19 29  1  0
 32 35  1  0
  9 10  1  0
 29 30  2  0
 30 31  1  0
 31 32  2  0
 32 33  1  0
 33 34  2  0
 34 29  1  0
 11 12  2  0
 12 13  1  0
 13 14  2  0
 14 15  1  0
 15 16  2  0
 16 11  1  0
  1  2  2  0
  2  5  1  0
  5  6  2  0
  6  4  1  0
  4  3  2  0
  3  1  1  0
M  END
$$$$
