No_8259-complexes_sdf/6BKW-FPZ/2024-09-17-14-21-01/
     RDKit          3D

 17 18  0  0  0  0  0  0  0  0999 V2000
   -7.2496    3.8871   27.4508 C   0  0  0  0  0  0  0  0  0  0  0  0
   -8.5096    4.0291   27.2770 C   0  0  0  0  0  0  0  0  0  0  0  0
   -9.3502    2.8685   26.8763 C   0  0  0  0  0  0  0  0  0  0  0  0
   -6.6288    2.5513   27.4938 C   0  0  0  0  0  0  0  0  0  0  0  0
   -7.4365    1.4714   27.2032 C   0  0  0  0  0  0  0  0  0  0  0  0
   -8.7772    1.6579   26.9338 C   0  0  0  0  0  0  0  0  0  0  0  0
   -9.1078    5.3660   27.2249 C   0  0  0  0  0  0  0  0  0  0  0  0
  -10.3243    5.4180   27.6589 F   0  0  0  0  0  0  0  0  0  0  0  0
   -8.3971    6.2640   28.0444 F   0  0  0  0  0  0  0  0  0  0  0  0
   -9.0207    5.8742   25.9697 F   0  0  0  0  0  0  0  0  0  0  0  0
   -6.8013    0.1868   27.1651 C   0  0  0  0  0  0  0  0  0  0  0  0
   -5.5937   -0.0732   27.8162 C   0  0  0  0  0  0  0  0  0  0  0  0
   -4.9753   -1.3399   27.8237 C   0  0  0  0  0  0  0  0  0  0  0  0
   -5.6110   -2.3024   27.0386 C   0  0  0  0  0  0  0  0  0  0  0  0
   -7.1898   -0.9953   26.5608 C   0  0  0  0  0  0  0  0  0  0  0  0
   -6.6904   -2.1433   26.4652 C   0  0  0  0  0  0  0  0  0  0  0  0
   -3.4802   -1.5339   28.6893 Cl  0  0  0  0  0  0  0  0  0  0  0  0
  2  7  1  0
  7  8  1  0
  7  9  1  0
  7 10  1  0
  5 11  1  0
 13 17  1  0
  1  2  2  0
  2  3  1  0
  3  6  2  0
  6  5  1  0
  5  4  2  0
  4  1  1  0
 11 12  2  0
 12 13  1  0
 13 14  2  0
 14 16  1  0
 16 15  2  0
 15 11  1  0
M  END
$$$$
