No_893-complexes_sdf/6BKW-FPZ/2024-09-17-14-21-01/
     RDKit          3D

 13 14  0  0  0  0  0  0  0  0999 V2000
   -7.2496    3.8871   27.4508 C   0  0  0  0  0  0  0  0  0  0  0  0
   -8.5096    4.0291   27.2770 C   0  0  0  0  0  0  0  0  0  0  0  0
   -9.3451    2.8786   26.9046 C   0  0  0  0  0  0  0  0  0  0  0  0
   -6.4420    5.0113   27.9803 C   0  0  0  0  0  0  0  0  0  0  0  0
  -10.7535    2.9969   26.7802 C   0  0  0  0  0  0  0  0  0  0  0  0
   -7.1374    6.2656   28.0462 C   0  0  0  0  0  0  0  0  0  0  0  0
   -9.0291    5.3194   27.4762 C   0  0  0  0  0  0  0  0  0  0  0  0
   -8.3689    6.4041   27.7651 C   0  0  0  0  0  0  0  0  0  0  0  0
  -11.5276    1.8498   26.6146 C   0  0  0  0  0  0  0  0  0  0  0  0
   -8.7622    1.6633   26.6329 C   0  0  0  0  0  0  0  0  0  0  0  0
   -9.5094    0.5413   26.3736 C   0  0  0  0  0  0  0  0  0  0  0  0
  -10.8940    0.6479   26.4000 C   0  0  0  0  0  0  0  0  0  0  0  0
  -11.6746   -0.4363   26.1244 F   0  0  0  0  0  0  0  0  0  0  0  0
 12 13  1  0
  3  2  1  0
  1  2  2  0
  2  7  1  0
  7  8  2  0
  8  6  1  0
  6  4  2  0
  4  1  1  0
  3  5  2  0
  5  9  1  0
  9 12  2  0
 12 11  1  0
 11 10  2  0
 10  3  1  0
M  END
$$$$
