No_8763-complexes_sdf/6BKW-FPZ/2024-09-17-14-21-01/
     RDKit          3D

 21 23  0  0  0  0  0  0  0  0999 V2000
   -7.9040    3.9820   27.1177 C   0  0  0  0  0  0  0  0  0  0  0  0
   -8.2057    2.8231   26.8733 C   0  0  0  0  0  0  0  0  0  0  0  0
   -7.4766    1.7477   27.4593 C   0  0  0  0  0  0  0  0  0  0  0  0
   -8.7468    5.1251   26.6967 C   0  0  0  0  0  0  0  0  0  0  0  0
   -8.4775    6.4967   27.1056 C   0  0  0  0  0  0  0  0  0  0  0  0
   -7.7919    0.3946   27.2728 C   0  0  0  0  0  0  0  0  0  0  0  0
   -7.0785   -0.5837   27.9032 C   0  0  0  0  0  0  0  0  0  0  0  0
   -9.2486    7.5482   26.6282 C   0  0  0  0  0  0  0  0  0  0  0  0
   -5.8622   -0.2432   28.5012 C   0  0  0  0  0  0  0  0  0  0  0  0
   -5.3831    1.0801   28.4461 C   0  0  0  0  0  0  0  0  0  0  0  0
   -6.0960    2.0598   27.9027 C   0  0  0  0  0  0  0  0  0  0  0  0
   -9.2997    2.5198   26.0401 C   0  0  0  0  0  0  0  0  0  0  0  0
  -10.0528    3.5824   25.4194 C   0  0  0  0  0  0  0  0  0  0  0  0
   -9.7070    4.8920   25.7956 C   0  0  0  0  0  0  0  0  0  0  0  0
   -5.0052   -1.3255   29.1113 C   0  0  0  0  0  0  0  0  0  0  0  0
   -3.7629   -1.2206   29.2323 C   0  0  0  0  0  0  0  0  0  0  0  0
   -2.9464   -2.2209   29.8658 C   0  0  0  0  0  0  0  0  0  0  0  0
   -3.6263   -3.3131   30.3664 C   0  0  0  0  0  0  0  0  0  0  0  0
   -5.5723   -2.4753   29.7199 C   0  0  0  0  0  0  0  0  0  0  0  0
   -4.9170   -3.4039   30.3327 C   0  0  0  0  0  0  0  0  0  0  0  0
   -7.2041    6.7057   27.8100 C   0  0  0  0  0  0  0  0  0  0  0  0
  2  3  1  0
  4  5  1  0
  5  8  2  0
  9 15  1  0
  5 21  1  0
 15 16  2  0
 16 17  1  0
 17 18  2  0
 18 20  1  0
 20 19  2  0
 19 15  1  0
  1  2  2  0
  2 12  1  0
 12 13  2  0
 13 14  1  0
 14  4  2  0
  4  1  1  0
  3  6  2  0
  6  7  1  0
  7  9  2  0
  9 10  1  0
 10 11  2  0
 11  3  1  0
M  END
$$$$
