No_8792-complexes_sdf/6BKW-FPZ/2024-09-17-14-21-01/
     RDKit          3D

 17 18  0  0  0  0  0  0  0  0999 V2000
   -7.2496    3.8871   27.4508 C   0  0  0  0  0  0  0  0  0  0  0  0
   -8.5096    4.0291   27.2770 C   0  0  0  0  0  0  0  0  0  0  0  0
   -9.3451    2.8786   26.9046 C   0  0  0  0  0  0  0  0  0  0  0  0
   -6.6065    2.5680   27.5073 C   0  0  0  0  0  0  0  0  0  0  0  0
   -7.4233    1.4858   27.2402 C   0  0  0  0  0  0  0  0  0  0  0  0
   -8.7362    1.6525   26.9989 C   0  0  0  0  0  0  0  0  0  0  0  0
   -9.0557    5.2399   27.2362 F   0  0  0  0  0  0  0  0  0  0  0  0
   -6.6248    0.2017   27.3540 C   0  0  0  0  0  0  0  0  0  0  0  0
   -7.0719   -0.8661   26.7491 C   0  0  0  0  0  0  0  0  0  0  0  0
   -6.4172   -2.0149   26.8066 C   0  0  0  0  0  0  0  0  0  0  0  0
   -5.3881    0.1990   27.9670 C   0  0  0  0  0  0  0  0  0  0  0  0
   -4.6424   -0.9246   28.1060 C   0  0  0  0  0  0  0  0  0  0  0  0
   -5.1659   -2.0710   27.4968 C   0  0  0  0  0  0  0  0  0  0  0  0
   -3.3754   -0.9404   28.8694 C   0  0  0  0  0  0  0  0  0  0  0  0
   -2.0589   -0.7850   28.0463 Cl  0  0  0  0  0  0  0  0  0  0  0  0
   -3.3508    0.1033   29.8444 F   0  0  0  0  0  0  0  0  0  0  0  0
   -3.3889   -1.9899   29.7323 F   0  0  0  0  0  0  0  0  0  0  0  0
  2  7  1  0
  5  8  1  0
 12 14  1  0
 14 15  1  0
 14 16  1  0
 14 17  1  0
  8  9  2  0
  9 10  1  0
 10 13  2  0
 13 12  1  0
 12 11  2  0
 11  8  1  0
  1  2  2  0
  2  3  1  0
  3  6  2  0
  6  5  1  0
  5  4  2  0
  4  1  1  0
M  END
$$$$
