No_8671-complexes_sdf/6BKW-FPZ/2024-09-17-14-21-01/
     RDKit          3D

 15 15  0  0  0  0  0  0  0  0999 V2000
   -7.9040    3.9820   27.1177 C   0  0  0  0  0  0  0  0  0  0  0  0
   -8.2057    2.8231   26.8733 C   0  0  0  0  0  0  0  0  0  0  0  0
   -8.7695    5.0740   26.7916 C   0  0  0  0  0  0  0  0  0  0  0  0
   -9.9618    4.7598   26.1630 C   0  0  0  0  0  0  0  0  0  0  0  0
   -9.4200    2.4524   26.2849 C   0  0  0  0  0  0  0  0  0  0  0  0
  -10.2590    3.4815   25.9250 C   0  0  0  0  0  0  0  0  0  0  0  0
   -8.3837    6.4702   27.0872 C   0  0  0  0  0  0  0  0  0  0  0  0
   -7.7610    6.8612   28.1191 N   0  0  0  0  0  0  0  0  0  0  0  0
   -8.8330    7.5063   26.3049 N   0  0  0  0  0  0  0  0  0  0  0  0
   -7.2705    1.6758   27.2763 C   0  0  1  0  0  0  0  0  0  0  0  0
   -6.0076    1.9820   27.8339 C   0  0  0  0  0  0  0  0  0  0  0  0
   -5.1313    0.9093   28.1848 C   0  0  0  0  0  0  0  0  0  0  0  0
   -5.5241   -0.3678   28.0509 C   0  0  0  0  0  0  0  0  0  0  0  0
   -7.6946    0.3256   27.1796 C   0  0  0  0  0  0  0  0  0  0  0  0
   -8.9666    0.0694   26.7505 C   0  0  0  0  0  0  0  0  0  0  0  0
  3  7  1  0
  7  8  2  0
  7  9  1  0
  2 10  1  0
 10 11  1  0
 11 12  2  3
 12 13  1  0
 10 14  1  1
 14 15  2  0
  1  2  2  0
  2  5  1  0
  5  6  2  0
  6  4  1  0
  4  3  2  0
  3  1  1  0
M  END
$$$$
