No_8435-complexes_sdf/6BKW-FPZ/2024-09-17-14-21-01/
     RDKit          3D

 18 20  0  0  0  0  0  0  0  0999 V2000
   -7.2496    3.8871   27.4508 C   0  0  0  0  0  0  0  0  0  0  0  0
   -7.6161    2.7143   27.1523 C   0  0  0  0  0  0  0  0  0  0  0  0
   -6.9719    1.5838   27.5324 C   0  0  0  0  0  0  0  0  0  0  0  0
   -5.6316    1.7305   27.9933 C   0  0  0  0  0  0  0  0  0  0  0  0
   -5.8952    4.0984   27.9705 C   0  0  0  0  0  0  0  0  0  0  0  0
   -5.1627    3.0216   28.2671 C   0  0  0  0  0  0  0  0  0  0  0  0
   -8.0937    5.0798   27.1839 C   0  0  0  0  0  0  0  0  0  0  0  0
   -9.2087    5.0731   26.3128 C   0  0  0  0  0  0  0  0  0  0  0  0
   -7.9822    6.2715   28.0380 C   0  0  0  0  0  0  0  0  0  0  0  0
   -4.8019    0.5697   28.2686 C   0  0  0  0  0  0  0  0  0  0  0  0
   -5.2094   -0.6069   28.5861 C   0  0  0  0  0  0  0  0  0  0  0  0
   -4.3617   -1.6740   28.9685 C   0  0  0  0  0  0  0  0  0  0  0  0
   -3.3946    0.7602   28.3761 C   0  0  0  0  0  0  0  0  0  0  0  0
   -2.4870   -0.2317   28.7642 C   0  0  0  0  0  0  0  0  0  0  0  0
   -2.9928   -1.4634   29.0551 C   0  0  0  0  0  0  0  0  0  0  0  0
   -8.7211    7.3958   27.5866 C   0  0  0  0  0  0  0  0  0  0  0  0
   -9.6173    3.8716   25.7880 C   0  0  0  0  0  0  0  0  0  0  0  0
   -8.8901    2.5884   26.3169 C   0  0  0  0  0  0  0  0  0  0  0  0
  7  9  1  0
  4 10  1  0
  9 16  1  0
  2 18  1  0
 18 17  2  0
 17  8  1  0
  8  7  2  0
  7  1  1  0
  1  2  1  0
  2  3  2  0
  3  4  1  0
  4  6  2  0
  6  5  1  0
  5  1  2  0
 10 11  2  0
 11 12  1  0
 12 15  2  0
 15 14  1  0
 14 13  2  0
 13 10  1  0
M  END
$$$$
