No_8440-complexes_sdf/6BKW-FPZ/2024-09-17-14-21-01/
     RDKit          3D

 27 31  0  0  0  0  0  0  0  0999 V2000
   -7.2496    3.8871   27.4508 C   0  0  0  0  0  0  0  0  0  0  0  0
   -7.9379    4.9063   27.8518 C   0  0  0  0  0  0  0  0  0  0  0  0
   -9.3376    4.8647   27.7795 C   0  0  0  0  0  0  0  0  0  0  0  0
   -7.8544    2.6294   27.0414 C   0  0  0  0  0  0  0  0  0  0  0  0
   -9.2852    2.6570   27.0666 C   0  0  0  0  0  0  0  0  0  0  0  0
  -10.0126    3.7528   27.4890 C   0  0  0  0  0  0  0  0  0  0  0  0
  -11.4647    3.4920   27.5096 C   0  0  0  0  0  0  0  0  0  0  0  0
  -12.0054    2.4852   27.8019 C   0  0  0  0  0  0  0  0  0  0  0  0
  -11.1766    1.2209   27.5588 C   0  0  0  0  0  0  0  0  0  0  0  0
   -9.8512    1.3199   27.1694 C   0  0  0  0  0  0  0  0  0  0  0  0
   -7.3189    6.0580   28.0911 F   0  0  0  0  0  0  0  0  0  0  0  0
  -11.8861   -0.1111   27.6150 C   0  0  0  0  0  0  0  0  0  0  0  0
  -11.3750   -0.9384   28.5481 C   0  0  0  0  0  0  0  0  0  0  0  0
  -10.3482   -1.4742   28.5655 C   0  0  0  0  0  0  0  0  0  0  0  0
   -9.8615   -2.4480   29.5850 C   0  0  0  0  0  0  0  0  0  0  0  0
   -8.5613   -2.9468   29.6893 C   0  0  0  0  0  0  0  0  0  0  0  0
   -7.6482   -2.4770   28.7237 C   0  0  0  0  0  0  0  0  0  0  0  0
   -7.9628   -1.5724   27.7767 C   0  0  0  0  0  0  0  0  0  0  0  0
   -9.1849   -1.0378   27.7544 C   0  0  0  0  0  0  0  0  0  0  0  0
   -9.2137    0.3408   27.0995 C   0  0  1  0  0  0  0  0  0  0  0  0
   -8.4091    0.1140   25.7513 C   0  0  0  0  0  0  0  0  0  0  0  0
   -8.9906   -0.4220   24.6216 C   0  0  0  0  0  0  0  0  0  0  0  0
   -8.3329   -0.2441   23.4532 C   0  0  0  0  0  0  0  0  0  0  0  0
   -9.0660   -0.2654   22.3231 C   0  0  0  0  0  0  0  0  0  0  0  0
  -10.0126   -0.0311   22.0988 C   0  0  0  0  0  0  0  0  0  0  0  0
  -10.9613   -0.1902   23.3002 C   0  0  0  0  0  0  0  0  0  0  0  0
  -10.4006   -0.4562   24.5214 C   0  0  0  0  0  0  0  0  0  0  0  0
  2 11  1  0
  9 12  1  0
 12 13  1  0
 10 20  1  0
 19 20  1  0
 20 21  1  6
 21 22  1  0
 13 14  1  0
 14 15  2  0
 15 16  1  0
 16 17  2  0
 17 18  1  0
 18 19  2  0
 19 14  1  0
 22 23  2  0
 23 24  1  0
 24 25  2  0
 25 26  1  0
 26 27  2  0
 27 22  1  0
  1  2  2  0
  2  3  1  0
  3  6  2  0
  5  4  2  0
  4  1  1  0
  5  6  1  0
  6  7  1  0
  7  8  2  0
  8  9  1  0
  9 10  2  0
 10  5  1  0
M  END
$$$$
