No_8326-complexes_sdf/6BKW-FPZ/2024-09-17-14-21-01/
     RDKit          3D

 35 37  0  0  0  0  0  0  0  0999 V2000
   -7.7129    4.2099   27.0854 C   0  0  0  0  0  0  0  0  0  0  0  0
   -8.2112    3.0637   26.9225 C   0  0  0  0  0  0  0  0  0  0  0  0
   -8.5108    5.3904   26.9436 C   0  0  0  0  0  0  0  0  0  0  0  0
   -9.7256    5.1955   26.3518 C   0  0  0  0  0  0  0  0  0  0  0  0
   -9.4995    2.8258   26.4878 C   0  0  0  0  0  0  0  0  0  0  0  0
  -10.2542    3.9691   26.2055 C   0  0  0  0  0  0  0  0  0  0  0  0
   -7.8124    6.9180   27.2380 Cl  0  0  0  0  0  0  0  0  0  0  0  0
   -7.3581    1.8338   27.2460 C   0  0  0  0  0  0  0  0  0  0  0  0
   -6.0522    2.0135   27.7609 C   0  0  0  0  0  0  0  0  0  0  0  0
   -5.2464    0.8599   28.0508 C   0  0  0  0  0  0  0  0  0  0  0  0
   -3.9275    1.0102   28.5964 C   0  0  0  0  0  0  0  0  0  0  0  0
   -5.7498   -0.4287   27.8158 C   0  0  0  0  0  0  0  0  0  0  0  0
   -7.0481   -0.5873   27.3269 C   0  0  0  0  0  0  0  0  0  0  0  0
   -7.8328    0.5532   27.0579 C   0  0  0  0  0  0  0  0  0  0  0  0
   -3.2167    0.3271   28.8832 O   0  0  0  0  0  0  0  0  0  0  0  0
  -11.5991    3.8269   25.6308 C   0  0  1  0  0  0  0  0  0  0  0  0
  -12.6501    3.8749   26.4615 C   0  0  0  0  0  0  0  0  0  0  0  0
  -12.4211    4.0235   27.9241 C   0  0  0  0  0  0  0  0  0  0  0  0
  -13.1264    3.4708   28.7193 C   0  0  0  0  0  0  0  0  0  0  0  0
  -14.4715    3.0876   28.4675 C   0  0  0  0  0  0  0  0  0  0  0  0
  -14.8145    3.1114   27.0967 C   0  0  0  0  0  0  0  0  0  0  0  0
  -13.9362    3.4281   26.1292 C   0  0  0  0  0  0  0  0  0  0  0  0
  -11.7569    4.6234   24.4205 C   0  0  0  0  0  0  0  0  0  0  0  0
   -3.5755    2.3735   28.3934 O   0  0  0  0  0  0  0  0  0  0  0  0
  -11.8393    3.5237   23.3505 C   0  0  0  0  0  0  0  0  0  0  0  0
  -11.6412    4.0083   22.1155 C   0  0  0  0  0  0  0  0  0  0  0  0
  -11.1855    4.9191   21.7220 C   0  0  0  0  0  0  0  0  0  0  0  0
  -10.1745    5.4717   21.8436 C   0  0  0  0  0  0  0  0  0  0  0  0
  -12.3650    2.9322   21.2118 C   0  0  0  0  0  0  0  0  0  0  0  0
  -12.4843    2.5058   23.6276 O   0  0  0  0  0  0  0  0  0  0  0  0
  -11.9519    2.1610   20.7040 C   0  0  0  0  0  0  0  0  0  0  0  0
  -11.9325    1.2223   20.1289 C   0  0  0  0  0  0  0  0  0  0  0  0
  -10.7762    0.2571   19.9579 C   0  0  0  0  0  0  0  0  0  0  0  0
   -9.7006    0.4691   20.7974 C   0  0  0  0  0  0  0  0  0  0  0  0
   -9.5483    1.6107   21.5495 C   0  0  0  0  0  0  0  0  0  0  0  0
  3  7  1  0
  2  8  1  0
 10 11  1  0
 11 15  2  0
  6 16  1  0
 16 23  1  6
 11 24  1  0
 23 25  1  0
 25 26  1  0
 26 27  2  3
 27 28  1  0
 26 29  1  0
 25 30  2  0
 29 31  2  3
 31 32  1  0
 32 33  2  3
 33 34  1  0
 34 35  2  0
 16 17  1  0
 17 18  2  0
 18 19  1  0
 19 20  2  0
 20 21  1  0
 21 22  2  0
 22 17  1  0
  8  9  2  0
  9 10  1  0
 10 12  2  0
 12 13  1  0
 13 14  2  0
 14  8  1  0
  1  2  2  0
  2  5  1  0
  5  6  2  0
  6  4  1  0
  4  3  2  0
  3  1  1  0
M  END
$$$$
