No_8333-complexes_sdf/6BKW-FPZ/2024-09-17-14-21-01/
     RDKit          3D

 12 13  0  0  0  0  0  0  0  0999 V2000
   -7.7129    4.2099   27.0854 C   0  0  0  0  0  0  0  0  0  0  0  0
   -8.2112    3.0637   26.9225 C   0  0  0  0  0  0  0  0  0  0  0  0
   -9.4446    2.8304   26.1868 C   0  0  0  0  0  0  0  0  0  0  0  0
   -8.4697    5.3956   26.7238 C   0  0  0  0  0  0  0  0  0  0  0  0
   -9.6172    5.2111   25.9513 C   0  0  0  0  0  0  0  0  0  0  0  0
  -10.0424    3.9782   25.6873 C   0  0  0  0  0  0  0  0  0  0  0  0
   -7.9284    6.6205   26.9678 O   0  0  0  0  0  0  0  0  0  0  0  0
   -9.8876    1.4749   25.9343 C   0  0  0  0  0  0  0  0  0  0  0  0
   -9.1456    0.5225   25.9572 C   0  0  0  0  0  0  0  0  0  0  0  0
   -7.7441    0.7747   26.2359 C   0  0  0  0  0  0  0  0  0  0  0  0
   -7.3277    1.8976   27.0239 C   0  0  0  0  0  0  0  0  0  0  0  0
   -6.1466    1.9866   27.5581 O   0  0  0  0  0  0  0  0  0  0  0  0
  4  7  1  0
  3  8  1  0
  9 10  1  0
  2 11  1  0
 10 11  1  0
 11 12  2  0
  8  9  1  0
  1  2  2  0
  2  3  1  0
  3  6  2  0
  6  5  1  0
  5  4  2  0
  4  1  1  0
M  END
$$$$
