No_8383-complexes_sdf/6BKW-FPZ/2024-09-17-14-21-01/
     RDKit          3D

 15 16  0  0  0  0  0  0  0  0999 V2000
   -7.9040    3.9820   27.1177 C   0  0  0  0  0  0  0  0  0  0  0  0
   -9.0711    4.3164   27.0630 C   0  0  0  0  0  0  0  0  0  0  0  0
   -9.5294    5.4517   27.7215 C   0  0  0  0  0  0  0  0  0  0  0  0
   -7.4336    2.7132   26.5681 C   0  0  0  0  0  0  0  0  0  0  0  0
   -8.3353    1.8569   26.0442 C   0  0  0  0  0  0  0  0  0  0  0  0
   -9.6477    2.2853   25.9146 C   0  0  0  0  0  0  0  0  0  0  0  0
  -10.0346    3.4497   26.4483 C   0  0  0  0  0  0  0  0  0  0  0  0
   -7.8608    0.5626   25.5840 C   0  0  0  0  0  0  0  0  0  0  0  0
   -6.9268   -0.1385   26.3326 C   0  0  0  0  0  0  0  0  0  0  0  0
   -6.4580   -1.3878   25.9223 C   0  0  0  0  0  0  0  0  0  0  0  0
   -6.8487   -1.8022   24.6286 C   0  0  0  0  0  0  0  0  0  0  0  0
   -8.0854   -0.0565   24.3803 C   0  0  0  0  0  0  0  0  0  0  0  0
   -7.6058   -1.0939   23.8587 C   0  0  0  0  0  0  0  0  0  0  0  0
   -6.6151    4.8167   28.0446 Cl  0  0  0  0  0  0  0  0  0  0  0  0
   -9.1217    0.9532   23.2413 Cl  0  0  0  0  0  0  0  0  0  0  0  0
  5  8  1  0
  1 14  1  0
 12 15  1  0
  3  2  1  0
  1  2  2  0
  2  7  1  0
  7  6  2  0
  6  5  1  0
  5  4  2  0
  4  1  1  0
  8  9  2  0
  9 10  1  0
 10 11  2  0
 11 13  1  0
 13 12  2  0
 12  8  1  0
M  END
$$$$
