No_8051-complexes_sdf/6BKW-FPZ/2024-09-17-14-21-01/
     RDKit          3D

 17 19  0  0  0  0  0  0  0  0999 V2000
   -7.2496    3.8871   27.4508 C   0  0  0  0  0  0  0  0  0  0  0  0
   -7.6161    2.7143   27.1523 C   0  0  0  0  0  0  0  0  0  0  0  0
   -8.8827    2.2318   27.1220 C   0  0  0  0  0  0  0  0  0  0  0  0
   -8.2837    4.9116   27.6108 C   0  0  0  0  0  0  0  0  0  0  0  0
   -9.6088    4.5175   27.5560 C   0  0  0  0  0  0  0  0  0  0  0  0
   -9.9243    3.2149   27.3938 C   0  0  0  0  0  0  0  0  0  0  0  0
   -7.8961    6.1758   27.8970 O   0  0  0  0  0  0  0  0  0  0  0  0
   -9.0854    0.7857   26.9052 C   0  0  0  0  0  0  0  0  0  0  0  0
  -10.2604    0.3161   27.2439 C   0  0  0  0  0  0  0  0  0  0  0  0
  -10.5244   -1.1049   27.1754 C   0  0  0  0  0  0  0  0  0  0  0  0
  -11.7557   -1.5963   27.6838 C   0  0  0  0  0  0  0  0  0  0  0  0
  -12.6861   -0.7058   28.2813 C   0  0  0  0  0  0  0  0  0  0  0  0
  -12.4197    0.6177   28.4232 C   0  0  0  0  0  0  0  0  0  0  0  0
  -11.1554    1.1339   28.0124 C   0  0  0  0  0  0  0  0  0  0  0  0
  -11.0501    2.5606   28.0792 C   0  0  0  0  0  0  0  0  0  0  0  0
  -11.9448    3.3366   28.5713 O   0  0  0  0  0  0  0  0  0  0  0  0
   -8.1334    0.1392   26.4305 F   0  0  0  0  0  0  0  0  0  0  0  0
  4  7  1  0
  3  8  1  0
  6 15  1  0
 14 15  1  0
 15 16  2  0
  8 17  1  0
  8  9  1  0
  1  2  2  0
  2  3  1  0
  3  6  2  0
  6  5  1  0
  5  4  2  0
  4  1  1  0
  9 10  2  0
 10 11  1  0
 11 12  2  0
 12 13  1  0
 13 14  2  0
 14  9  1  0
M  END
$$$$
