No_854-complexes_sdf/6BKW-FPZ/2024-09-17-14-21-01/
     RDKit          3D

 40 46  0  0  0  0  0  0  0  0999 V2000
   -7.7129    4.2099   27.0854 C   0  0  0  0  0  0  0  0  0  0  0  0
   -7.7814    5.1722   27.8972 C   0  0  0  0  0  0  0  0  0  0  0  0
   -8.8998    3.8713   26.3707 C   0  0  0  0  0  0  0  0  0  0  0  0
   -8.9563    2.6796   25.5490 C   0  0  0  0  0  0  0  0  0  0  0  0
   -8.8131    6.1334   27.9344 C   0  0  0  0  0  0  0  0  0  0  0  0
   -9.9804    5.8121   27.1929 C   0  0  0  0  0  0  0  0  0  0  0  0
   -9.9861    4.6836   26.4532 C   0  0  0  0  0  0  0  0  0  0  0  0
   -8.3398    1.5722   26.0349 N   0  0  0  0  0  0  0  0  0  0  0  0
   -8.2160    0.4307   25.3399 C   0  0  0  0  0  0  0  0  0  0  0  0
   -7.2831   -0.5091   25.8004 C   0  0  0  0  0  0  0  0  0  0  0  0
   -6.5314   -0.2638   26.9929 C   0  0  0  0  0  0  0  0  0  0  0  0
   -6.6541    0.9971   27.6468 C   0  0  0  0  0  0  0  0  0  0  0  0
   -7.4824    1.9140   27.1489 C   0  0  1  0  0  0  0  0  0  0  0  0
   -7.3288    3.1426   27.5942 N   0  0  0  0  0  0  0  0  0  0  0  0
   -9.7631    2.5548   24.6180 O   0  0  0  0  0  0  0  0  0  0  0  0
   -5.7325   -1.2301   27.7031 C   0  0  0  0  0  0  0  0  0  0  0  0
   -4.9690   -0.9048   28.5774 C   0  0  0  0  0  0  0  0  0  0  0  0
   -4.1394   -1.8164   29.4169 C   0  0  0  0  0  0  0  0  0  0  0  0
   -3.3755   -1.2859   30.4852 C   0  0  0  0  0  0  0  0  0  0  0  0
   -3.3243    0.0949   30.7635 C   0  0  0  0  0  0  0  0  0  0  0  0
   -4.0600    0.9630   29.9429 C   0  0  0  0  0  0  0  0  0  0  0  0
   -4.7837    0.4994   29.0077 C   0  0  0  0  0  0  0  0  0  0  0  0
   -5.7015    1.3898   28.3876 N   0  0  0  0  0  0  0  0  0  0  0  0
   -5.8498   -2.6265   27.2155 C   0  0  0  0  0  0  0  0  0  0  0  0
   -6.9842   -3.3470   27.3857 C   0  0  0  0  0  0  0  0  0  0  0  0
   -7.9524   -2.9785   28.3134 C   0  0  0  0  0  0  0  0  0  0  0  0
   -9.1925   -3.6925   28.4809 C   0  0  0  0  0  0  0  0  0  0  0  0
   -9.3186   -4.8027   27.6839 C   0  0  0  0  0  0  0  0  0  0  0  0
   -8.3937   -5.2128   26.7835 C   0  0  0  0  0  0  0  0  0  0  0  0
   -7.2195   -4.5065   26.6336 C   0  0  0  0  0  0  0  0  0  0  0  0
   -4.6994   -3.1841   26.5503 C   0  0  0  0  0  0  0  0  0  0  0  0
   -3.8834   -4.0431   27.3294 C   0  0  0  0  0  0  0  0  0  0  0  0
   -2.7975   -4.6883   26.7268 C   0  0  0  0  0  0  0  0  0  0  0  0
   -2.5710   -4.4009   25.3892 C   0  0  0  0  0  0  0  0  0  0  0  0
   -4.4089   -2.9888   25.2670 C   0  0  0  0  0  0  0  0  0  0  0  0
   -3.3581   -3.6101   24.6627 C   0  0  0  0  0  0  0  0  0  0  0  0
   -2.5219   -2.2563   31.2719 C   0  0  1  0  0  0  0  0  0  0  0  0
   -3.1203   -2.9265   32.2592 C   0  0  0  0  0  0  0  0  0  0  0  0
   -2.4507   -3.8803   32.8929 C   0  0  0  0  0  0  0  0  0  0  0  0
   -1.4476   -2.8708   30.6848 C   0  0  0  0  0  0  0  0  0  0  0  0
  3  4  1  0
  4  8  1  0
  8  9  1  0
 10 11  1  0
  8 13  1  0
 12 13  1  0
  1 14  1  0
  4 15  2  0
 16 24  1  0
 24 31  1  0
 19 37  1  0
 37 38  1  0
 38 39  2  0
 37 40  1  6
 24 25  1  0
 13 14  1  6
  9 10  1  0
 25 26  2  0
 26 27  1  0
 27 28  2  0
 28 29  1  0
 29 30  2  0
 30 25  1  0
  1  2  2  0
  2  5  1  0
  5  6  2  0
  6  7  1  0
  7  3  2  0
  3  1  1  0
 31 32  2  0
 32 33  1  0
 33 34  2  0
 34 36  1  0
 36 35  2  0
 35 31  1  0
 11 16  2  0
 16 17  1  0
 22 23  1  0
 23 12  2  0
 12 11  1  0
 17 18  2  0
 18 19  1  0
 19 20  2  0
 20 21  1  0
 21 22  2  0
 22 17  1  0
M  END
$$$$
