No_882-complexes_sdf/6BKW-FPZ/2024-09-17-14-21-01/
     RDKit          3D

 18 19  0  0  0  0  0  0  0  0999 V2000
   -7.2496    3.8871   27.4508 C   0  0  0  0  0  0  0  0  0  0  0  0
   -7.6161    2.7143   27.1523 C   0  0  0  0  0  0  0  0  0  0  0  0
   -7.1619    1.8631   27.5232 C   0  0  0  0  0  0  0  0  0  0  0  0
   -8.0384    5.0866   27.3232 C   0  0  0  0  0  0  0  0  0  0  0  0
   -9.1223    5.1097   26.4856 C   0  0  0  0  0  0  0  0  0  0  0  0
   -8.9186    2.6660   26.4794 C   0  0  0  0  0  0  0  0  0  0  0  0
   -9.6149    3.8296   26.1383 C   0  0  0  0  0  0  0  0  0  0  0  0
   -5.7280    1.8487   28.0286 C   0  0  0  0  0  0  0  0  0  0  0  0
   -5.0637    0.5670   28.3538 C   0  0  0  0  0  0  0  0  0  0  0  0
   -3.7541    0.5930   28.8988 C   0  0  0  0  0  0  0  0  0  0  0  0
   -5.8988   -0.4917   28.6487 C   0  0  0  0  0  0  0  0  0  0  0  0
   -3.2028   -0.4829   29.5658 C   0  0  0  0  0  0  0  0  0  0  0  0
   -5.3122   -1.6253   29.2789 C   0  0  0  0  0  0  0  0  0  0  0  0
   -4.0245   -1.6159   29.7233 C   0  0  0  0  0  0  0  0  0  0  0  0
   -7.4995    6.3569   27.7030 N   0  0  0  0  0  0  0  0  0  0  0  0
  -10.8034    3.7796   25.2579 C   0  0  0  0  0  0  0  0  0  0  0  0
  -10.7489    3.9548   23.8615 C   0  0  0  0  0  0  0  0  0  0  0  0
  -11.8519    3.9098   23.0303 C   0  0  0  0  0  0  0  0  0  0  0  0
  2  3  1  0
  3  8  2  3
  8  9  1  0
  4 15  1  0
  7 16  1  0
 16 17  2  3
 17 18  1  0
  9 10  2  0
 10 12  1  0
 12 14  2  0
 14 13  1  0
 13 11  2  0
 11  9  1  0
  1  2  2  0
  2  6  1  0
  6  7  2  0
  7  5  1  0
  5  4  2  0
  4  1  1  0
M  END
$$$$
