No_852-complexes_sdf/6BKW-FPZ/2024-09-17-14-21-01/
     RDKit          3D

 15 16  0  0  0  0  0  0  0  0999 V2000
   -7.9040    3.9820   27.1177 C   0  0  0  0  0  0  0  0  0  0  0  0
   -9.0711    4.3164   27.0630 C   0  0  0  0  0  0  0  0  0  0  0  0
   -9.9692    3.7224   26.1073 C   0  0  0  0  0  0  0  0  0  0  0  0
   -6.9787    4.6761   28.1003 C   0  0  0  0  0  0  0  0  0  0  0  0
   -9.4538    2.6801   25.3673 C   0  0  0  0  0  0  0  0  0  0  0  0
   -8.1927    2.1957   25.6621 C   0  0  0  0  0  0  0  0  0  0  0  0
   -7.4333    2.8255   26.6299 C   0  0  0  0  0  0  0  0  0  0  0  0
  -10.3066    1.9975   24.3777 C   0  0  0  0  0  0  0  0  0  0  0  0
   -9.7680    1.0924   23.6436 C   0  0  0  0  0  0  0  0  0  0  0  0
  -10.4827    0.4966   22.5627 C   0  0  0  0  0  0  0  0  0  0  0  0
  -11.7789    0.9084   22.3126 C   0  0  0  0  0  0  0  0  0  0  0  0
  -11.5816    2.4416   24.0045 C   0  0  0  0  0  0  0  0  0  0  0  0
  -12.3039    1.9063   23.0355 C   0  0  0  0  0  0  0  0  0  0  0  0
   -7.4012    5.7551   28.6530 O   0  0  0  0  0  0  0  0  0  0  0  0
   -5.8413    4.1423   28.3808 O   0  0  0  0  0  0  0  0  0  0  0  0
  1  4  1  0
  5  8  1  0
  4 14  2  0
  4 15  1  0
  8  9  2  0
  9 10  1  0
 10 11  2  0
 11 13  1  0
 13 12  2  0
 12  8  1  0
  1  2  2  0
  2  3  1  0
  3  5  2  0
  5  6  1  0
  6  7  2  0
  7  1  1  0
M  END
$$$$
