No_8908-complexes_sdf/6BKW-FPZ/2024-09-17-14-21-01/
     RDKit          3D

 29 33  0  0  0  0  0  0  0  0999 V2000
   -7.9040    3.9820   27.1177 C   0  0  0  0  0  0  0  0  0  0  0  0
   -9.0711    4.3164   27.0630 C   0  0  0  0  0  0  0  0  0  0  0  0
   -9.8698    3.9665   25.9495 C   0  0  0  0  0  0  0  0  0  0  0  0
   -7.4046    2.7946   26.4568 C   0  0  0  0  0  0  0  0  0  0  0  0
   -8.3659    2.1310   25.6816 C   0  0  0  0  0  0  0  0  0  0  0  0
   -9.5390    2.7825   25.4030 C   0  0  0  0  0  0  0  0  0  0  0  0
   -6.9809    4.5459   28.0623 N   0  0  0  0  0  0  0  0  0  0  0  0
   -7.5505    5.7156   28.5573 C   0  0  0  0  0  0  0  0  0  0  0  0
   -9.2883    5.7080   27.5605 C   0  0  0  0  0  0  0  0  0  0  0  0
   -8.3771    6.3597   28.2084 N   0  0  0  0  0  0  0  0  0  0  0  0
  -10.4539    2.1298   24.4099 C   0  0  0  0  0  0  0  0  0  0  0  0
  -11.2833    2.4106   23.7729 N   0  0  0  0  0  0  0  0  0  0  0  0
  -11.3808    3.0809   22.9988 C   0  0  0  0  0  0  0  0  0  0  0  0
  -12.5378    3.9242   22.7453 C   0  0  0  0  0  0  0  0  0  0  0  0
  -10.2098    0.7644   24.4312 O   0  0  0  0  0  0  0  0  0  0  0  0
  -10.3435    3.4091   21.9893 C   0  0  0  0  0  0  0  0  0  0  0  0
  -10.4460    4.3504   20.9308 C   0  0  0  0  0  0  0  0  0  0  0  0
  -12.6752    4.8324   21.6630 C   0  0  0  0  0  0  0  0  0  0  0  0
  -11.6140    5.0146   20.7691 C   0  0  0  0  0  0  0  0  0  0  0  0
  -12.5882    1.5776   23.9331 C   0  0  0  0  0  0  0  0  0  0  0  0
  -13.7516    1.6405   24.0786 C   0  0  0  0  0  0  0  0  0  0  0  0
  -14.1883    3.0832   24.2410 C   0  0  0  0  0  0  0  0  0  0  0  0
  -13.7527    3.8478   23.4208 C   0  0  0  0  0  0  0  0  0  0  0  0
  -15.5802    3.2564   24.8768 C   0  0  0  0  0  0  0  0  0  0  0  0
  -15.8281    2.6801   25.9880 C   0  0  0  0  0  0  0  0  0  0  0  0
  -17.0729    2.9012   26.6548 C   0  0  0  0  0  0  0  0  0  0  0  0
  -17.9573    3.7907   26.0456 C   0  0  0  0  0  0  0  0  0  0  0  0
  -17.6649    4.4320   24.9055 C   0  0  0  0  0  0  0  0  0  0  0  0
  -16.4421    4.2338   24.3154 C   0  0  0  0  0  0  0  0  0  0  0  0
  6 11  1  0
 11 12  1  0
 12 13  1  0
 11 15  2  0
 12 20  1  0
 20 21  2  0
 21 22  1  0
 14 23  1  0
 22 23  2  0
 22 24  1  0
 24 25  2  0
 25 26  1  0
 26 27  2  0
 27 28  1  0
 28 29  2  0
 29 24  1  0
  2  3  2  0
  3  6  1  0
  6  5  2  0
  5  4  1  0
  4  1  2  0
 13 14  2  0
 14 18  1  0
 18 19  2  0
 19 17  1  0
 17 16  2  0
 16 13  1  0
  1  2  1  0
  2  9  1  0
  9 10  2  0
 10  8  1  0
  8  7  2  0
  7  1  1  0
M  END
$$$$
