No_866-complexes_sdf/6BKW-FPZ/2024-09-17-14-21-01/
     RDKit          3D

 40 45  0  0  0  0  0  0  0  0999 V2000
   -7.9040    3.9820   27.1177 C   0  0  0  0  0  0  0  0  0  0  0  0
   -8.2057    2.8231   26.8733 C   0  0  0  0  0  0  0  0  0  0  0  0
   -7.4766    1.7477   27.4593 C   0  0  0  0  0  0  0  0  0  0  0  0
   -6.7221    4.3631   27.8544 C   0  0  0  0  0  0  0  0  0  0  0  0
   -6.1698    2.0708   27.9540 C   0  0  0  0  0  0  0  0  0  0  0  0
   -5.2664    1.0481   28.4148 C   0  0  0  0  0  0  0  0  0  0  0  0
   -5.8314    3.4519   28.2237 C   0  0  0  0  0  0  0  0  0  0  0  0
   -5.6188   -0.3131   28.3998 C   0  0  0  0  0  0  0  0  0  0  0  0
   -6.9246   -0.5702   27.7950 C   0  0  0  0  0  0  0  0  0  0  0  0
   -7.7590    0.3779   27.3057 C   0  0  0  0  0  0  0  0  0  0  0  0
   -8.7796    5.1367   26.6317 C   0  0  0  0  0  0  0  0  0  0  0  0
   -9.2943    5.0335   25.5077 F   0  0  0  0  0  0  0  0  0  0  0  0
   -9.9027    5.3615   27.5517 F   0  0  0  0  0  0  0  0  0  0  0  0
   -8.1645    6.3980   26.6795 F   0  0  0  0  0  0  0  0  0  0  0  0
   -4.7408   -1.3454   28.8334 C   0  0  0  0  0  0  0  0  0  0  0  0
   -5.0261   -2.2289   29.2882 O   0  0  0  0  0  0  0  0  0  0  0  0
   -3.4206   -1.0031   28.7257 O   0  0  0  0  0  0  0  0  0  0  0  0
   -9.0285   -0.0240   26.7575 C   0  0  0  0  0  0  0  0  0  0  0  0
   -9.4578   -1.1083   26.7925 C   0  0  0  0  0  0  0  0  0  0  0  0
  -10.7871   -1.5398   26.2432 C   0  0  0  0  0  0  0  0  0  0  0  0
  -11.4475   -0.5427   25.5753 C   0  0  0  0  0  0  0  0  0  0  0  0
  -10.9513    0.7254   25.4559 C   0  0  0  0  0  0  0  0  0  0  0  0
   -9.7787    1.0536   26.0234 C   0  0  0  0  0  0  0  0  0  0  0  0
  -11.7445    1.7556   24.7316 C   0  0  0  0  0  0  0  0  0  0  0  0
  -12.2649    1.5007   23.5496 C   0  0  0  0  0  0  0  0  0  0  0  0
  -12.2068    1.9745   22.6310 C   0  0  0  0  0  0  0  0  0  0  0  0
  -12.7650    1.5298   21.3412 C   0  0  0  0  0  0  0  0  0  0  0  0
  -13.4592    0.3756   21.3469 C   0  0  0  0  0  0  0  0  0  0  0  0
  -13.5800   -0.2679   22.4921 C   0  0  0  0  0  0  0  0  0  0  0  0
  -13.0298    0.1650   23.6177 C   0  0  0  0  0  0  0  0  0  0  0  0
  -12.5512   -0.8573   24.6066 C   0  0  2  0  0  0  0  0  0  0  0  0
  -13.1730   -2.0323   24.6907 N   0  0  0  0  0  0  0  0  0  0  0  0
  -12.9381   -2.9700   23.9218 C   0  0  2  0  0  0  0  0  0  0  0  0
  -13.6453   -4.1549   24.0358 C   0  0  0  0  0  0  0  0  0  0  0  0
  -14.4755   -2.0155   25.3144 C   0  0  0  0  0  0  0  0  0  0  0  0
  -15.1416   -3.1464   25.5405 C   0  0  0  0  0  0  0  0  0  0  0  0
  -14.7642   -4.2233   24.7892 C   0  0  0  0  0  0  0  0  0  0  0  0
  -11.8032   -2.9620   23.1614 N   0  0  0  0  0  0  0  0  0  0  0  0
  -11.1006   -3.4905   22.4358 C   0  0  0  0  0  0  0  0  0  0  0  0
   -9.9769   -2.9713   21.8187 C   0  0  0  0  0  0  0  0  0  0  0  0
  1 11  1  0
 11 12  1  0
 11 13  1  0
 11 14  1  0
  8 15  1  0
 15 16  2  0
 15 17  1  0
 10 18  1  0
 22 24  1  0
 24 25  1  0
 21 31  1  0
 30 31  1  0
 31 32  1  1
 32 33  1  0
 32 35  1  0
 34 37  1  0
 36 37  1  0
 33 38  1  1
 38 39  1  0
 39 40  2  0
 33 34  1  0
 36 35  1  0
 18 19  2  0
 19 20  1  0
 20 21  2  0
 21 22  1  0
 22 23  2  0
 23 18  1  0
 25 26  2  0
 26 27  1  0
 27 28  2  0
 28 29  1  0
 29 30  2  0
 30 25  1  0
  1  2  2  0
  2  3  1  0
  5  7  1  0
  7  4  2  0
  4  1  1  0
  3  5  2  0
  5  6  1  0
  6  8  2  0
  8  9  1  0
  9 10  2  0
 10  3  1  0
M  END
$$$$
