No_8592-complexes_sdf/6BKW-FPZ/2024-09-17-14-21-01/
     RDKit          3D

 31 36  0  0  0  0  0  0  0  0999 V2000
   -7.2496    3.8871   27.4508 C   0  0  0  0  0  0  0  0  0  0  0  0
   -8.5096    4.0291   27.2770 C   0  0  0  0  0  0  0  0  0  0  0  0
   -9.3451    2.8786   26.9046 C   0  0  0  0  0  0  0  0  0  0  0  0
   -8.7138    1.7135   26.7541 C   0  0  0  0  0  0  0  0  0  0  0  0
   -6.6024    2.6286   27.4581 C   0  0  0  0  0  0  0  0  0  0  0  0
   -7.3557    1.5598   27.1381 C   0  0  0  0  0  0  0  0  0  0  0  0
   -9.1549    5.3630   27.3415 C   0  0  0  0  0  0  0  0  0  0  0  0
  -10.4861    5.6125   27.6028 C   0  0  0  0  0  0  0  0  0  0  0  0
   -8.2708    6.5124   27.5493 C   0  0  0  0  0  0  0  0  0  0  0  0
   -8.5148    7.4178   26.4356 Cl  0  0  0  0  0  0  0  0  0  0  0  0
   -6.6944    0.2620   26.9918 C   0  0  0  0  0  0  0  0  0  0  0  0
   -6.9917   -0.6426   26.1898 C   0  0  0  0  0  0  0  0  0  0  0  0
   -8.0632   -0.3913   25.2160 C   0  0  0  0  0  0  0  0  0  0  0  0
   -9.1829    0.7127   25.8028 C   0  0  0  0  0  0  0  0  0  0  0  0
  -10.4648    0.7631   25.2168 C   0  0  0  0  0  0  0  0  0  0  0  0
  -10.5504    0.6466   23.9716 C   0  0  0  0  0  0  0  0  0  0  0  0
  -11.8523    0.7183   23.3052 C   0  0  0  0  0  0  0  0  0  0  0  0
  -11.9065    0.6023   21.9116 C   0  0  0  0  0  0  0  0  0  0  0  0
  -10.7379    0.3859   21.1349 C   0  0  0  0  0  0  0  0  0  0  0  0
   -9.4974    0.3431   21.7522 C   0  0  0  0  0  0  0  0  0  0  0  0
   -9.3855    0.5010   23.0756 C   0  0  0  0  0  0  0  0  0  0  0  0
   -8.4444   -0.9151   23.9937 C   0  0  2  0  0  0  0  0  0  0  0  0
   -9.1977   -2.1549   23.8116 C   0  0  0  0  0  0  0  0  0  0  0  0
   -7.1434   -0.8259   23.0968 C   0  0  0  0  0  0  0  0  0  0  0  0
   -9.6030   -2.7014   24.9540 C   0  0  0  0  0  0  0  0  0  0  0  0
  -10.1585   -3.5058   25.1823 C   0  0  0  0  0  0  0  0  0  0  0  0
  -10.6931   -4.0013   26.4775 C   0  0  0  0  0  0  0  0  0  0  0  0
  -10.5037   -3.4059   27.2972 C   0  0  0  0  0  0  0  0  0  0  0  0
   -9.7291   -2.2140   27.4879 C   0  0  0  0  0  0  0  0  0  0  0  0
   -9.2782   -1.8004   26.2614 C   0  0  0  0  0  0  0  0  0  0  0  0
   -8.1800   -1.7531   26.6150 C   0  0  0  0  0  0  0  0  0  0  0  0
  2  7  1  0
  7  8  2  0
  7  9  1  0
  9 10  1  0
 14 15  1  0
 13 22  1  0
 21 22  1  0
 22 23  1  0
 22 24  1  6
 23 25  1  0
 12 31  1  0
 30 31  1  0
 15 16  1  0
 25 26  2  0
 26 27  1  0
 27 28  2  0
 28 29  1  0
 29 30  2  0
 30 25  1  0
  1  2  2  0
  2  3  1  0
  3  4  2  0
  6  5  2  0
  5  1  1  0
  4  6  1  0
  6 11  1  0
 11 12  2  0
 12 13  1  0
 13 14  2  0
 14  4  1  0
 16 17  2  0
 17 18  1  0
 18 19  2  0
 19 20  1  0
 20 21  2  0
 21 16  1  0
M  END
$$$$
