No_8872-complexes_sdf/6BKW-FPZ/2024-09-17-14-21-01/
     RDKit          3D

 25 28  0  0  0  0  0  0  0  0999 V2000
   -7.9040    3.9820   27.1177 C   0  0  0  0  0  0  0  0  0  0  0  0
   -9.0711    4.3164   27.0630 C   0  0  0  0  0  0  0  0  0  0  0  0
   -9.5294    5.4517   27.7215 C   0  0  0  0  0  0  0  0  0  0  0  0
   -6.9328    4.7309   27.8881 C   0  0  0  0  0  0  0  0  0  0  0  0
   -7.3377    5.8421   28.5537 C   0  0  0  0  0  0  0  0  0  0  0  0
   -8.6411    6.2609   28.3972 C   0  0  0  0  0  0  0  0  0  0  0  0
  -10.0467    3.4917   26.2630 C   0  0  0  0  0  0  0  0  0  0  0  0
   -9.6004    2.6685   25.4425 N   0  0  0  0  0  0  0  0  0  0  0  0
  -10.1784    2.2284   24.2886 C   0  0  0  0  0  0  0  0  0  0  0  0
  -10.7965    3.0986   23.5329 C   0  0  0  0  0  0  0  0  0  0  0  0
  -11.4354    2.7991   22.3760 C   0  0  0  0  0  0  0  0  0  0  0  0
  -11.2745    1.5525   21.8272 C   0  0  0  0  0  0  0  0  0  0  0  0
   -9.8767    0.9966   23.6958 C   0  0  0  0  0  0  0  0  0  0  0  0
  -10.4360    0.6570   22.4828 C   0  0  0  0  0  0  0  0  0  0  0  0
  -11.1425    4.0859   26.0261 O   0  0  0  0  0  0  0  0  0  0  0  0
   -5.6965    4.2340   28.0296 F   0  0  0  0  0  0  0  0  0  0  0  0
   -8.8572   -0.1662   24.4523 Cl  0  0  0  0  0  0  0  0  0  0  0  0
  -11.8264    1.1826   20.5052 C   0  0  0  0  0  0  0  0  0  0  0  0
  -11.5498   -0.0107   19.9885 C   0  0  0  0  0  0  0  0  0  0  0  0
  -12.1174   -0.4415   18.7880 C   0  0  0  0  0  0  0  0  0  0  0  0
  -11.8209   -1.7507   18.2514 C   0  0  0  0  0  0  0  0  0  0  0  0
  -10.8920   -2.5356   18.9574 C   0  0  0  0  0  0  0  0  0  0  0  0
  -10.2618   -2.1287   20.0409 C   0  0  0  0  0  0  0  0  0  0  0  0
  -10.5047   -0.9184   20.5708 C   0  0  0  0  0  0  0  0  0  0  0  0
   -9.9761   -0.5590   21.8606 C   0  0  0  0  0  0  0  0  0  0  0  0
  2  7  1  0
  7  8  1  0
  8  9  1  0
  7 15  2  0
  4 16  1  0
 13 17  1  0
  1  2  2  0
  2  3  1  0
  3  6  2  0
  6  5  1  0
  5  4  2  0
  4  1  1  0
 19 20  1  0
 20 21  2  0
 21 22  1  0
 22 23  2  0
 23 24  1  0
  9 10  2  0
 10 11  1  0
 11 12  2  0
 14 13  2  0
 13  9  1  0
 12 14  1  0
 14 25  1  0
 25 24  2  0
 24 19  1  0
 19 18  2  0
 18 12  1  0
M  END
$$$$
