No_8314-complexes_sdf/6BKW-FPZ/2024-09-17-14-21-01/
     RDKit          3D

 23 25  0  0  0  0  0  0  0  0999 V2000
   -7.9040    3.9820   27.1177 C   0  0  0  0  0  0  0  0  0  0  0  0
   -8.2057    2.8231   26.8733 C   0  0  0  0  0  0  0  0  0  0  0  0
   -7.4766    1.7477   27.4593 C   0  0  0  0  0  0  0  0  0  0  0  0
   -8.7468    5.1251   26.6967 C   0  0  0  0  0  0  0  0  0  0  0  0
   -9.7234    4.8589   25.8202 C   0  0  0  0  0  0  0  0  0  0  0  0
   -9.9711    3.5858   25.4266 C   0  0  0  0  0  0  0  0  0  0  0  0
   -9.2266    2.4957   25.9600 C   0  0  0  0  0  0  0  0  0  0  0  0
   -6.8155    0.8730   26.9394 N   0  0  0  0  0  0  0  0  0  0  0  0
   -7.1233    0.1125   26.0418 C   0  0  0  0  0  0  0  0  0  0  0  0
   -8.4311    6.5238   27.0943 C   0  0  0  0  0  0  0  0  0  0  0  0
   -8.0351    6.7431   28.2355 O   0  0  0  0  0  0  0  0  0  0  0  0
   -8.4164    7.5057   26.2231 O   0  0  0  0  0  0  0  0  0  0  0  0
   -6.2512   -0.9017   25.5740 C   0  0  0  0  0  0  0  0  0  0  0  0
   -5.3311    0.7396   27.3340 C   0  0  2  0  0  0  0  0  0  0  0  0
   -4.5453   -0.2201   26.9956 C   0  0  0  0  0  0  0  0  0  0  0  0
   -4.9874   -1.0307   25.9788 C   0  0  0  0  0  0  0  0  0  0  0  0
   -4.8494    1.8432   28.6779 Cl  0  0  0  0  0  0  0  0  0  0  0  0
  -11.0329    3.3064   24.4502 C   0  0  0  0  0  0  0  0  0  0  0  0
  -12.2802    2.9075   24.8702 C   0  0  0  0  0  0  0  0  0  0  0  0
  -13.2867    2.7575   23.9836 C   0  0  0  0  0  0  0  0  0  0  0  0
  -10.7958    3.5810   23.1239 C   0  0  0  0  0  0  0  0  0  0  0  0
  -11.7763    3.5188   22.1648 C   0  0  0  0  0  0  0  0  0  0  0  0
  -13.0411    3.0880   22.6088 C   0  0  0  0  0  0  0  0  0  0  0  0
  2  3  1  0
  3  8  1  0
  8  9  1  0
  4 10  1  0
 10 11  2  0
 10 12  1  0
  8 14  1  0
 13 16  1  0
 15 16  1  0
 14 17  1  1
  6 18  1  0
  9 13  1  0
 15 14  1  0
  1  2  2  0
  2  7  1  0
  7  6  2  0
  6  5  1  0
  5  4  2  0
  4  1  1  0
 18 19  2  0
 19 20  1  0
 20 23  2  0
 23 22  1  0
 22 21  2  0
 21 18  1  0
M  END
$$$$
