No_8667-complexes_sdf/6BKW-FPZ/2024-09-17-14-21-01/
     RDKit          3D

 32 36  0  0  0  0  0  0  0  0999 V2000
   -7.9040    3.9820   27.1177 C   0  0  0  0  0  0  0  0  0  0  0  0
   -8.2057    2.8231   26.8733 C   0  0  0  0  0  0  0  0  0  0  0  0
   -8.7695    5.0740   26.7916 C   0  0  0  0  0  0  0  0  0  0  0  0
   -9.7466    4.9191   26.3183 C   0  0  0  0  0  0  0  0  0  0  0  0
   -9.4594    2.5453   26.2990 C   0  0  0  0  0  0  0  0  0  0  0  0
  -10.2402    3.6028   25.9953 C   0  0  0  0  0  0  0  0  0  0  0  0
   -8.4571    6.5318   27.1513 C   0  0  0  0  0  0  0  0  0  0  0  0
   -7.8813    7.5145   26.8318 N   0  0  0  0  0  0  0  0  0  0  0  0
   -7.2978    1.6598   27.2362 C   0  0  0  0  0  0  0  0  0  0  0  0
   -6.1382    1.9249   27.8211 N   0  0  0  0  0  0  0  0  0  0  0  0
   -7.5796    0.3376   26.9524 C   0  0  0  0  0  0  0  0  0  0  0  0
   -5.2763    0.8898   28.1346 C   0  0  0  0  0  0  0  0  0  0  0  0
   -6.7418   -0.6764   27.2555 C   0  0  0  0  0  0  0  0  0  0  0  0
   -5.5389   -0.3690   27.9294 C   0  0  0  0  0  0  0  0  0  0  0  0
   -4.0484    1.1273   28.7921 N   0  0  0  0  0  0  0  0  0  0  0  0
   -3.2431    0.1056   29.1479 C   0  0  0  0  0  0  0  0  0  0  0  0
   -3.5209   -1.1580   28.9255 C   0  0  0  0  0  0  0  0  0  0  0  0
   -4.6706   -1.4297   28.3513 C   0  0  0  0  0  0  0  0  0  0  0  0
  -11.5192    3.3830   25.2481 C   0  0  0  0  0  0  0  0  0  0  0  0
  -12.6330    2.9161   25.9485 C   0  0  0  0  0  0  0  0  0  0  0  0
  -13.8287    3.0251   25.4727 C   0  0  0  0  0  0  0  0  0  0  0  0
  -13.9900    3.4376   24.0818 C   0  0  0  0  0  0  0  0  0  0  0  0
  -11.7450    3.9983   23.9821 C   0  0  0  0  0  0  0  0  0  0  0  0
  -10.5279    4.4295   23.2354 C   0  0  0  0  0  0  0  0  0  0  0  0
  -12.9677    3.9630   23.3811 C   0  0  0  0  0  0  0  0  0  0  0  0
  -10.7895    5.0541   21.9769 C   0  0  0  0  0  0  0  0  0  0  0  0
  -12.0125    5.0274   21.4079 C   0  0  0  0  0  0  0  0  0  0  0  0
  -13.1435    4.5484   22.0879 C   0  0  0  0  0  0  0  0  0  0  0  0
   -2.5767   -2.1966   29.3965 C   0  0  0  0  0  0  0  0  0  0  0  0
   -1.4915   -2.1760   29.4004 N   0  0  0  0  0  0  0  0  0  0  0  0
   -3.1754   -3.3357   29.8106 O   0  0  0  0  0  0  0  0  0  0  0  0
   -0.4835   -3.1893   29.8592 C   0  0  0  0  0  0  0  0  0  0  0  0
  3  7  1  0
  7  8  3  0
  2  9  1  0
  6 19  1  0
 17 29  1  0
 29 30  2  3
 29 31  1  0
 30 32  1  0
  9 10  2  0
 10 12  1  0
 14 13  1  0
 13 11  2  0
 11  9  1  0
 12 14  2  0
 14 18  1  0
 18 17  2  0
 17 16  1  0
 16 15  2  0
 15 12  1  0
 19 20  2  0
 20 21  1  0
 21 22  2  0
 22 25  1  0
 23 19  1  0
 23 24  2  0
 24 26  1  0
 26 27  2  0
 27 28  1  0
 28 25  2  0
 25 23  1  0
  1  2  2  0
  2  5  1  0
  5  6  2  0
  6  4  1  0
  4  3  2  0
  3  1  1  0
M  END
$$$$
