No_8827-complexes_sdf/6BKW-FPZ/2024-09-17-14-21-01/
     RDKit          3D

 14 15  0  0  0  0  0  0  0  0999 V2000
   -7.7129    4.2099   27.0854 C   0  0  0  0  0  0  0  0  0  0  0  0
   -7.7814    5.1722   27.8972 C   0  0  0  0  0  0  0  0  0  0  0  0
   -8.8998    3.8713   26.3707 C   0  0  0  0  0  0  0  0  0  0  0  0
   -8.9563    2.6796   25.5490 C   0  0  0  0  0  0  0  0  0  0  0  0
   -8.8501    6.0071   27.8467 N   0  0  0  0  0  0  0  0  0  0  0  0
   -9.9490    5.7837   27.2002 C   0  0  0  0  0  0  0  0  0  0  0  0
   -9.9821    4.6597   26.4501 C   0  0  0  0  0  0  0  0  0  0  0  0
   -9.6080    1.9022   25.8291 N   0  0  0  0  0  0  0  0  0  0  0  0
  -10.3543    1.5989   26.5969 C   0  0  0  0  0  0  0  0  0  0  0  0
  -10.8036    0.1480   26.8380 C   0  0  0  0  0  0  0  0  0  0  0  0
  -10.0312   -0.7176   26.5105 C   0  0  2  0  0  0  0  0  0  0  0  0
   -9.0080    0.4489   25.3101 C   0  0  0  0  0  0  0  0  0  0  0  0
   -9.1883   -0.7368   25.6694 C   0  0  0  0  0  0  0  0  0  0  0  0
   -8.5020   -1.8559   25.0751 C   0  0  0  0  0  0  0  0  0  0  0  0
  3  4  1  0
  4  8  1  0
  8  9  1  0
  9 10  2  0
 10 11  1  0
  8 12  1  0
 11 12  1  0
 11 13  1  6
 13 14  1  0
  1  2  2  0
  2  5  1  0
  5  6  2  0
  6  7  1  0
  7  3  2  0
  3  1  1  0
M  END
$$$$
