No_8589-complexes_sdf/6BKW-FPZ/2024-09-17-14-21-01/
     RDKit          3D

 21 23  0  0  0  0  0  0  0  0999 V2000
   -7.9040    3.9820   27.1177 C   0  0  0  0  0  0  0  0  0  0  0  0
   -9.0711    4.3164   27.0630 C   0  0  0  0  0  0  0  0  0  0  0  0
   -9.5182    5.5541   27.5777 C   0  0  0  0  0  0  0  0  0  0  0  0
   -6.9424    4.7983   27.8424 C   0  0  0  0  0  0  0  0  0  0  0  0
   -7.3526    5.9739   28.3909 C   0  0  0  0  0  0  0  0  0  0  0  0
   -8.6479    6.3742   28.2170 C   0  0  0  0  0  0  0  0  0  0  0  0
  -10.0621    3.4422   26.3345 C   0  0  0  0  0  0  0  0  0  0  0  0
   -9.6335    2.6185   25.4370 C   0  0  0  0  0  0  0  0  0  0  0  0
  -10.2933    1.9173   24.6163 C   0  0  0  0  0  0  0  0  0  0  0  0
   -9.6770    1.0119   23.6377 C   0  0  0  0  0  0  0  0  0  0  0  0
   -8.4121    0.5490   23.9234 C   0  0  0  0  0  0  0  0  0  0  0  0
   -7.8227   -0.3303   22.9978 C   0  0  0  0  0  0  0  0  0  0  0  0
   -8.4644   -0.7185   21.8257 C   0  0  0  0  0  0  0  0  0  0  0  0
   -9.7426   -0.2379   21.5559 C   0  0  0  0  0  0  0  0  0  0  0  0
  -10.3342    0.6188   22.4645 C   0  0  0  0  0  0  0  0  0  0  0  0
  -11.4233    3.6754   26.3866 C   0  0  0  0  0  0  0  0  0  0  0  0
  -12.2440    2.9602   25.5241 C   0  0  0  0  0  0  0  0  0  0  0  0
  -11.6878    2.0947   24.6126 C   0  0  0  0  0  0  0  0  0  0  0  0
   -6.4581   -0.8864   23.2756 C   0  0  0  0  0  0  0  0  0  0  0  0
   -5.8115   -0.3235   24.0918 O   0  0  0  0  0  0  0  0  0  0  0  0
   -6.2417   -2.0907   22.9314 O   0  0  0  0  0  0  0  0  0  0  0  0
  2  7  1  0
 12 19  1  0
 19 20  1  0
 19 21  2  0
 10  9  1  0
  1  2  2  0
  2  3  1  0
  3  6  2  0
  6  5  1  0
  5  4  2  0
  4  1  1  0
 10 11  2  0
 11 12  1  0
 12 13  2  0
 13 14  1  0
 14 15  2  0
 15 10  1  0
  7  8  2  0
  8  9  1  0
  9 18  2  0
 18 17  1  0
 17 16  2  0
 16  7  1  0
M  END
$$$$
