No_8770-complexes_sdf/6BKW-FPZ/2024-09-17-14-21-01/
     RDKit          3D

 18 20  0  0  0  0  0  0  0  0999 V2000
   -7.7129    4.2099   27.0854 C   0  0  0  0  0  0  0  0  0  0  0  0
   -8.2112    3.0637   26.9225 C   0  0  0  0  0  0  0  0  0  0  0  0
   -7.0021    4.5281   28.2396 C   0  0  0  0  0  0  0  0  0  0  0  0
   -7.5497    1.9016   27.4549 C   0  0  0  0  0  0  0  0  0  0  0  0
   -8.0700    0.6173   27.2932 C   0  0  0  0  0  0  0  0  0  0  0  0
   -7.5026   -0.4661   27.9187 C   0  0  0  0  0  0  0  0  0  0  0  0
   -8.1489   -1.6956   27.9455 C   0  0  0  0  0  0  0  0  0  0  0  0
   -9.3282   -1.8102   27.1817 C   0  0  0  0  0  0  0  0  0  0  0  0
   -9.8758   -0.7667   26.5394 C   0  0  0  0  0  0  0  0  0  0  0  0
   -9.2679    0.4690   26.5979 C   0  0  0  0  0  0  0  0  0  0  0  0
   -9.2707    2.8480   26.0546 C   0  0  0  0  0  0  0  0  0  0  0  0
   -9.8340    1.5485   25.8783 C   0  0  0  0  0  0  0  0  0  0  0  0
   -8.4082    5.3869   26.4937 C   0  0  0  0  0  0  0  0  0  0  0  0
   -8.1535    6.7473   26.9611 C   0  0  0  0  0  0  0  0  0  0  0  0
   -6.8506    5.8929   28.7769 C   0  0  0  0  0  0  0  0  0  0  0  0
   -7.3671    6.9087   28.0791 C   0  0  0  0  0  0  0  0  0  0  0  0
  -10.9142    1.4154   24.9541 C   0  0  0  0  0  0  0  0  0  0  0  0
  -12.1316    1.6574   25.3451 C   0  0  0  0  0  0  0  0  0  0  0  0
  1  2  1  0
 12 17  1  0
 17 18  1  0
  2  4  2  0
  4  5  1  0
 10 12  1  0
 12 11  2  0
 11  2  1  0
  5  6  2  0
  6  7  1  0
  7  8  2  0
  8  9  1  0
  9 10  2  0
 10  5  1  0
  1  3  2  0
  3 15  1  0
 15 16  2  0
 16 14  1  0
 14 13  2  0
 13  1  1  0
M  END
$$$$
