No_8080-complexes_sdf/6BKW-FPZ/2024-09-17-14-21-01/
     RDKit          3D

 35 38  0  0  0  0  0  0  0  0999 V2000
   -7.9040    3.9820   27.1177 C   0  0  0  0  0  0  0  0  0  0  0  0
   -8.2057    2.8231   26.8733 C   0  0  0  0  0  0  0  0  0  0  0  0
   -7.4766    1.7477   27.4593 C   0  0  0  0  0  0  0  0  0  0  0  0
   -8.7468    5.1251   26.6967 C   0  0  0  0  0  0  0  0  0  0  0  0
   -9.7234    4.8589   25.8202 C   0  0  0  0  0  0  0  0  0  0  0  0
   -9.9711    3.5858   25.4266 C   0  0  0  0  0  0  0  0  0  0  0  0
   -9.2266    2.4957   25.9600 C   0  0  0  0  0  0  0  0  0  0  0  0
   -6.6425    0.9223   26.7531 C   0  0  0  0  0  0  0  0  0  0  0  0
   -5.7452    0.1285   27.5453 C   0  0  0  0  0  0  0  0  0  0  0  0
   -4.7699    0.7858   28.1827 C   0  0  0  0  0  0  0  0  0  0  0  0
   -3.8360    0.0966   29.0123 C   0  0  0  0  0  0  0  0  0  0  0  0
   -3.8011   -1.2214   29.1380 C   0  0  0  0  0  0  0  0  0  0  0  0
   -4.8460   -1.8879   28.4075 C   0  0  0  0  0  0  0  0  0  0  0  0
   -5.7627   -1.2280   27.6535 C   0  0  0  0  0  0  0  0  0  0  0  0
   -8.4332    6.5242   27.0876 C   0  0  0  0  0  0  0  0  0  0  0  0
   -8.7732    7.5655   26.4436 N   0  0  0  0  0  0  0  0  0  0  0  0
   -7.2630    6.6465   27.8985 N   0  0  0  0  0  0  0  0  0  0  0  0
   -2.8153   -1.8850   29.9609 C   0  0  0  0  0  0  0  0  0  0  0  0
   -2.5347   -1.4958   31.0558 O   0  0  0  0  0  0  0  0  0  0  0  0
   -2.2250   -2.9125   29.4355 O   0  0  0  0  0  0  0  0  0  0  0  0
  -11.0265    3.3513   24.4387 C   0  0  2  0  0  0  0  0  0  0  0  0
  -11.0295    2.3498   23.6439 C   0  0  0  0  0  0  0  0  0  0  0  0
  -10.5885    2.2533   22.7169 C   0  0  0  0  0  0  0  0  0  0  0  0
  -10.3994    0.9964   21.8607 C   0  0  0  0  0  0  0  0  0  0  0  0
  -10.9227   -0.1401   22.3765 C   0  0  0  0  0  0  0  0  0  0  0  0
  -11.5272   -0.0816   23.5797 C   0  0  0  0  0  0  0  0  0  0  0  0
  -11.5444    1.0573   24.3097 C   0  0  0  0  0  0  0  0  0  0  0  0
  -12.0978    4.3345   24.2801 C   0  0  0  0  0  0  0  0  0  0  0  0
   -6.8183   -1.9771   26.9730 C   0  0  0  0  0  0  0  0  0  0  0  0
   -7.3767   -2.9586   27.6979 C   0  0  0  0  0  0  0  0  0  0  0  0
   -8.4386   -3.7424   27.0999 C   0  0  0  0  0  0  0  0  0  0  0  0
   -8.8838   -3.3457   25.8145 C   0  0  0  0  0  0  0  0  0  0  0  0
   -8.2336   -2.3500   25.2630 C   0  0  0  0  0  0  0  0  0  0  0  0
   -7.2778   -1.5732   25.7375 C   0  0  0  0  0  0  0  0  0  0  0  0
   -4.7140    2.1602   28.1743 O   0  0  0  0  0  0  0  0  0  0  0  0
  2  3  1  0
  3  8  1  0
  8  9  1  0
  4 15  1  0
 15 16  2  0
 15 17  1  0
 12 18  1  0
 18 19  2  0
 18 20  1  0
  6 21  1  0
 21 22  1  0
 21 28  1  6
 14 29  1  0
 10 35  1  0
 29 30  2  0
 30 31  1  0
 31 32  2  0
 32 33  1  0
 33 34  2  0
 34 29  1  0
 22 23  2  0
 23 24  1  0
 24 25  2  0
 25 26  1  0
 26 27  2  0
 27 22  1  0
  1  2  2  0
  2  7  1  0
  7  6  2  0
  6  5  1  0
  5  4  2  0
  4  1  1  0
  9 10  2  0
 10 11  1  0
 11 12  2  0
 12 13  1  0
 13 14  2  0
 14  9  1  0
M  END
$$$$
