No_8741-complexes_sdf/6BKW-FPZ/2024-09-17-14-21-01/
     RDKit          3D

 19 21  0  0  0  0  0  0  0  0999 V2000
   -7.7129    4.2099   27.0854 C   0  0  0  0  0  0  0  0  0  0  0  0
   -8.2112    3.0637   26.9225 C   0  0  0  0  0  0  0  0  0  0  0  0
   -8.5108    5.3904   26.9436 C   0  0  0  0  0  0  0  0  0  0  0  0
   -9.7256    5.1955   26.3518 C   0  0  0  0  0  0  0  0  0  0  0  0
   -9.4995    2.8258   26.4878 C   0  0  0  0  0  0  0  0  0  0  0  0
  -10.2542    3.9691   26.2055 C   0  0  0  0  0  0  0  0  0  0  0  0
   -7.8124    6.9180   27.2380 Cl  0  0  0  0  0  0  0  0  0  0  0  0
   -7.4153    1.9168   27.2310 N   0  0  0  0  0  0  0  0  0  0  0  0
   -6.1463    2.0413   27.7402 C   0  0  0  0  0  0  0  0  0  0  0  0
   -5.4237    0.7506   28.0099 C   0  0  0  0  0  0  0  0  0  0  0  0
   -6.1930   -0.3358   27.7768 C   0  0  0  0  0  0  0  0  0  0  0  0
   -7.6550    0.5190   27.1984 C   0  0  0  0  0  0  0  0  0  0  0  0
   -4.0915    0.6773   28.5538 C   0  0  0  0  0  0  0  0  0  0  0  0
   -3.1007    0.3335   27.9562 C   0  0  0  0  0  0  0  0  0  0  0  0
   -3.9987    0.8804   30.0613 C   0  0  0  0  0  0  0  0  0  0  0  0
   -3.0926    0.0427   30.6917 N   0  0  0  0  0  0  0  0  0  0  0  0
   -3.0369    0.3737   26.4997 C   0  0  0  0  0  0  0  0  0  0  0  0
   -2.0552   -0.6101   29.9905 C   0  0  0  0  0  0  0  0  0  0  0  0
   -1.9698   -0.3515   28.5997 C   0  0  0  0  0  0  0  0  0  0  0  0
  3  7  1  0
  2  8  1  0
  8  9  1  0
  9 10  2  0
 10 11  1  0
  8 12  1  0
 11 12  1  0
 10 13  1  0
 14 17  1  0
 13 14  2  0
 14 19  1  0
 19 18  2  0
 18 16  1  0
 16 15  2  0
 15 13  1  0
  1  2  2  0
  2  5  1  0
  5  6  2  0
  6  4  1  0
  4  3  2  0
  3  1  1  0
M  END
$$$$
