No_8325-complexes_sdf/6BKW-FPZ/2024-09-17-14-21-01/
     RDKit          3D

 28 31  0  0  0  0  0  0  0  0999 V2000
   -7.9040    3.9820   27.1177 C   0  0  0  0  0  0  0  0  0  0  0  0
   -7.8663    4.8694   27.9238 C   0  0  0  0  0  0  0  0  0  0  0  0
   -9.0491    3.8523   26.2542 C   0  0  0  0  0  0  0  0  0  0  0  0
   -9.9827    3.2456   26.6451 C   0  0  2  0  0  0  0  0  0  0  0  0
  -10.7367    3.8670   27.7658 C   0  0  1  0  0  0  0  0  0  0  0  0
   -8.9700    5.2194   28.8729 C   0  0  0  0  0  0  0  0  0  0  0  0
  -10.3036    4.7969   28.5455 C   0  0  0  0  0  0  0  0  0  0  0  0
  -12.1913    3.5574   27.8145 C   0  0  0  0  0  0  0  0  0  0  0  0
  -12.5225    2.4051   28.1143 C   0  0  0  0  0  0  0  0  0  0  0  0
  -13.7107    2.0088   28.4980 C   0  0  0  0  0  0  0  0  0  0  0  0
  -14.7596    2.9133   28.3877 C   0  0  0  0  0  0  0  0  0  0  0  0
  -14.4775    4.2514   28.0496 C   0  0  0  0  0  0  0  0  0  0  0  0
  -13.1282    4.6424   27.8375 C   0  0  0  0  0  0  0  0  0  0  0  0
  -10.0135    1.8438   26.7633 C   0  0  0  0  0  0  0  0  0  0  0  0
   -9.3528    1.0376   26.4239 C   0  0  0  0  0  0  0  0  0  0  0  0
   -9.2911   -0.4150   26.5943 C   0  0  0  0  0  0  0  0  0  0  0  0
  -10.3509   -0.8746   27.3559 C   0  0  0  0  0  0  0  0  0  0  0  0
  -11.3042   -0.0341   27.9049 C   0  0  0  0  0  0  0  0  0  0  0  0
  -11.4865    1.3267   27.6987 C   0  0  0  0  0  0  0  0  0  0  0  0
   -6.7243    5.4640   28.3741 O   0  0  0  0  0  0  0  0  0  0  0  0
  -15.4823    5.3286   28.0959 C   0  0  0  0  0  0  0  0  0  0  0  0
  -15.5208    5.8920   26.9843 F   0  0  0  0  0  0  0  0  0  0  0  0
  -15.1586    6.4789   29.3053 Cl  0  0  0  0  0  0  0  0  0  0  0  0
  -16.7282    4.7993   28.2629 F   0  0  0  0  0  0  0  0  0  0  0  0
   -8.2771   -1.3159   26.1345 C   0  0  0  0  0  0  0  0  0  0  0  0
   -7.7591   -1.0578   25.0323 N   0  0  0  0  0  0  0  0  0  0  0  0
   -6.6676   -1.3000   24.5728 C   0  0  0  0  0  0  0  0  0  0  0  0
   -6.2291   -0.8861   23.1893 C   0  0  0  0  0  0  0  0  0  0  0  0
  1  2  1  0
  1  3  1  0
  4  3  1  1
  4  5  1  0
  2  6  1  0
  5  7  1  6
  6  7  1  0
  5  8  1  0
  4 14  1  0
  9 19  1  0
  2 20  2  0
 12 21  1  0
 21 22  1  0
 21 23  1  0
 21 24  1  0
 16 25  1  0
 25 26  1  0
 26 27  2  3
 27 28  1  0
 14 15  2  0
 15 16  1  0
 16 17  2  0
 17 18  1  0
 18 19  2  0
 19 14  1  0
  8  9  2  0
  9 10  1  0
 10 11  2  0
 11 12  1  0
 12 13  2  0
 13  8  1  0
M  END
$$$$
