No_8477-complexes_sdf/6BKW-FPZ/2024-09-17-14-21-01/
     RDKit          3D

 15 16  0  0  0  0  0  0  0  0999 V2000
   -7.7129    4.2099   27.0854 C   0  0  0  0  0  0  0  0  0  0  0  0
   -7.7814    5.1722   27.8972 C   0  0  0  0  0  0  0  0  0  0  0  0
   -8.8255    3.2789   27.1191 C   0  0  0  0  0  0  0  0  0  0  0  0
   -9.9209    3.4734   27.9101 C   0  0  0  0  0  0  0  0  0  0  0  0
   -9.9736    4.7085   28.6831 C   0  0  0  0  0  0  0  0  0  0  0  0
   -8.8840    5.5441   28.6612 C   0  0  0  0  0  0  0  0  0  0  0  0
   -8.7059    2.0159   26.3410 C   0  0  0  0  0  0  0  0  0  0  0  0
   -7.9268    0.9388   26.6910 C   0  0  0  0  0  0  0  0  0  0  0  0
   -7.8299   -0.1995   26.0013 C   0  0  0  0  0  0  0  0  0  0  0  0
   -9.4492    1.9066   25.1755 C   0  0  0  0  0  0  0  0  0  0  0  0
   -9.3693    0.7962   24.3491 C   0  0  0  0  0  0  0  0  0  0  0  0
   -8.5423   -0.2458   24.7893 C   0  0  0  0  0  0  0  0  0  0  0  0
  -11.0608    2.6004   27.9663 C   0  0  0  0  0  0  0  0  0  0  0  0
  -11.0562    1.4160   28.1524 C   0  0  0  0  0  0  0  0  0  0  0  0
  -12.1777    0.5093   28.2950 C   0  0  0  0  0  0  0  0  0  0  0  0
  3  7  1  0
  4 13  1  0
 13 14  2  3
 14 15  1  0
  1  2  2  0
  2  6  1  0
  6  5  2  0
  5  4  1  0
  4  3  2  0
  3  1  1  0
  7  8  2  0
  8  9  1  0
  9 12  2  0
 12 11  1  0
 11 10  2  0
 10  7  1  0
M  END
$$$$
