No_892-complexes_sdf/6BKW-FPZ/2024-09-17-14-21-01/
     RDKit          3D

 29 32  0  0  0  0  0  0  0  0999 V2000
   -7.9040    3.9820   27.1177 C   0  0  0  0  0  0  0  0  0  0  0  0
   -9.0711    4.3164   27.0630 C   0  0  0  0  0  0  0  0  0  0  0  0
   -9.5182    5.5541   27.5777 C   0  0  0  0  0  0  0  0  0  0  0  0
   -6.9424    4.7983   27.8424 C   0  0  0  0  0  0  0  0  0  0  0  0
   -7.3526    5.9739   28.3909 C   0  0  0  0  0  0  0  0  0  0  0  0
   -8.6479    6.3742   28.2170 C   0  0  0  0  0  0  0  0  0  0  0  0
  -10.2021    3.5782   26.4472 C   0  0  0  0  0  0  0  0  0  0  0  0
   -9.8538    2.3906   25.9970 C   0  0  0  0  0  0  0  0  0  0  0  0
  -10.7836    1.5819   25.3304 C   0  0  0  0  0  0  0  0  0  0  0  0
  -12.0439    2.1184   25.0600 C   0  0  0  0  0  0  0  0  0  0  0  0
  -12.3082    3.4116   25.4507 C   0  0  0  0  0  0  0  0  0  0  0  0
  -11.4175    4.1772   26.1496 C   0  0  0  0  0  0  0  0  0  0  0  0
  -10.5316    0.3399   24.8901 F   0  0  0  0  0  0  0  0  0  0  0  0
   -5.6877    4.3033   27.9742 F   0  0  0  0  0  0  0  0  0  0  0  0
  -13.0480    1.3364   24.3270 C   0  0  0  0  0  0  0  0  0  0  0  0
  -13.6774    0.5541   24.6670 C   0  0  0  0  0  0  0  0  0  0  0  0
  -13.8237    0.2732   26.0932 C   0  0  0  0  0  0  0  0  0  0  0  0
  -14.2695    1.0397   26.9398 C   0  0  0  0  0  0  0  0  0  0  0  0
  -14.3601    0.7218   28.4164 C   0  0  0  0  0  0  0  0  0  0  0  0
  -13.8617   -0.5216   28.8135 C   0  0  0  0  0  0  0  0  0  0  0  0
  -13.3815   -1.0986   26.5985 C   0  0  0  0  0  0  0  0  0  0  0  0
  -13.4105   -1.4176   27.9231 C   0  0  0  0  0  0  0  0  0  0  0  0
  -14.7778   -0.0866   24.0490 C   0  0  0  0  0  0  0  0  0  0  0  0
  -14.7722   -0.1094   22.7483 C   0  0  0  0  0  0  0  0  0  0  0  0
  -13.8718    0.8490   22.1256 C   0  0  0  0  0  0  0  0  0  0  0  0
  -12.9650    1.6491   22.8627 C   0  0  0  0  0  0  0  0  0  0  0  0
  -13.8917    1.0303   20.6565 C   0  0  0  0  0  0  0  0  0  0  0  0
  -13.9272    2.0435   20.1210 O   0  0  0  0  0  0  0  0  0  0  0  0
  -14.2205   -0.1091   19.9972 O   0  0  0  0  0  0  0  0  0  0  0  0
  2  7  1  0
  9 13  1  0
  4 14  1  0
 10 15  1  0
 16 17  1  0
 25 27  1  0
 27 28  2  0
 27 29  1  0
 15 16  1  0
 16 23  2  0
 23 24  1  0
 24 25  2  0
 25 26  1  0
 26 15  2  0
  1  2  2  0
  2  3  1  0
  3  6  2  0
  6  5  1  0
  5  4  2  0
  4  1  1  0
 17 18  2  0
 18 19  1  0
 19 20  2  0
 20 22  1  0
 22 21  2  0
 21 17  1  0
  7  8  2  0
  8  9  1  0
  9 10  2  0
 10 11  1  0
 11 12  2  0
 12  7  1  0
M  END
$$$$
