No_8061-complexes_sdf/6BKW-FPZ/2024-09-17-14-21-01/
     RDKit          3D

 17 18  0  0  0  0  0  0  0  0999 V2000
   -7.9040    3.9820   27.1177 C   0  0  0  0  0  0  0  0  0  0  0  0
   -9.0711    4.3164   27.0630 C   0  0  0  0  0  0  0  0  0  0  0  0
   -9.9692    3.7224   26.1073 C   0  0  0  0  0  0  0  0  0  0  0  0
   -6.9787    4.6761   28.1003 C   0  0  0  0  0  0  0  0  0  0  0  0
   -9.4538    2.6801   25.3673 C   0  0  0  0  0  0  0  0  0  0  0  0
   -8.1927    2.1957   25.6621 C   0  0  0  0  0  0  0  0  0  0  0  0
   -7.4333    2.8255   26.6299 C   0  0  0  0  0  0  0  0  0  0  0  0
  -10.3181    2.0008   24.3846 C   0  0  1  0  0  0  0  0  0  0  0  0
  -10.7358    2.6411   23.3159 C   0  0  0  0  0  0  0  0  0  0  0  0
  -10.9225    3.9476   23.2665 C   0  0  0  0  0  0  0  0  0  0  0  0
  -11.3373    4.7037   22.0880 C   0  0  0  0  0  0  0  0  0  0  0  0
  -11.4502    3.9957   20.9338 C   0  0  0  0  0  0  0  0  0  0  0  0
  -10.8953    2.0349   22.0440 C   0  0  0  0  0  0  0  0  0  0  0  0
  -11.2373    2.6652   20.8783 C   0  0  0  0  0  0  0  0  0  0  0  0
  -10.5830    0.6160   24.5885 C   0  0  0  0  0  0  0  0  0  0  0  0
   -9.8111   -0.1007   24.1191 F   0  0  0  0  0  0  0  0  0  0  0  0
  -10.6637    0.3786   25.9460 F   0  0  0  0  0  0  0  0  0  0  0  0
  1  4  1  0
  5  8  1  0
  8  9  1  0
  8 15  1  6
 15 16  1  0
 15 17  1  0
  9 10  2  0
 10 11  1  0
 11 12  2  0
 12 14  1  0
 14 13  2  0
 13  9  1  0
  1  2  2  0
  2  3  1  0
  3  5  2  0
  5  6  1  0
  6  7  2  0
  7  1  1  0
M  END
$$$$
