No_8712-complexes_sdf/6BKW-FPZ/2024-09-17-14-21-01/
     RDKit          3D

 16 16  0  0  0  0  0  0  0  0999 V2000
   -7.7129    4.2099   27.0854 C   0  0  0  0  0  0  0  0  0  0  0  0
   -8.9133    4.4736   27.0998 C   0  0  0  0  0  0  0  0  0  0  0  0
   -9.8363    3.8127   27.2418 C   0  0  0  0  0  0  0  0  0  0  0  0
   -7.3546    3.0210   27.6031 C   0  0  0  0  0  0  0  0  0  0  0  0
   -8.2966    2.0110   27.6763 C   0  0  0  0  0  0  0  0  0  0  0  0
   -9.5906    2.3997   27.6140 C   0  0  0  0  0  0  0  0  0  0  0  0
  -10.8005    1.5862   27.8520 C   0  0  0  0  0  0  0  0  0  0  0  0
  -10.6364    0.4144   28.0320 N   0  0  0  0  0  0  0  0  0  0  0  0
  -11.9439    2.1160   28.1374 O   0  0  0  0  0  0  0  0  0  0  0  0
  -11.6252   -0.5954   28.4882 C   0  0  0  0  0  0  0  0  0  0  0  0
   -9.2092    6.0434   26.6980 C   0  0  0  0  0  0  0  0  0  0  0  0
  -11.0903   -1.7729   28.8718 C   0  0  0  0  0  0  0  0  0  0  0  0
   -9.7981   -2.1341   28.5292 C   0  0  0  0  0  0  0  0  0  0  0  0
   -9.2702   -3.3791   28.9743 C   0  0  0  0  0  0  0  0  0  0  0  0
  -10.0603   -4.1587   29.7455 C   0  0  0  0  0  0  0  0  0  0  0  0
  -11.3382   -3.8388   30.0923 C   0  0  0  0  0  0  0  0  0  0  0  0
  6  7  1  0
  7  8  1  0
  7  9  2  0
  8 10  1  0
  2 11  1  0
 10 12  2  3
 12 13  1  0
 13 14  1  0
 14 15  2  3
 15 16  1  0
  1  2  2  0
  2  3  1  0
  3  6  2  0
  6  5  1  0
  5  4  2  0
  4  1  1  0
M  END
$$$$
