No_8463-complexes_sdf/6BKW-FPZ/2024-09-17-14-21-01/
     RDKit          3D

 19 20  0  0  0  0  0  0  0  0999 V2000
   -7.7129    4.2099   27.0854 C   0  0  0  0  0  0  0  0  0  0  0  0
   -7.7814    5.1722   27.8972 C   0  0  0  0  0  0  0  0  0  0  0  0
   -7.3155    2.9699   27.6145 C   0  0  0  0  0  0  0  0  0  0  0  0
   -6.9774    2.0071   26.9623 C   0  0  0  0  0  0  0  0  0  0  0  0
   -6.2970    0.8917   27.5555 C   0  0  0  0  0  0  0  0  0  0  0  0
   -5.3521    0.3384   27.4672 C   0  0  0  0  0  0  0  0  0  0  0  0
   -4.8636   -0.7419   28.3845 C   0  0  0  0  0  0  0  0  0  0  0  0
   -5.8381   -1.2644   29.1909 C   0  0  0  0  0  0  0  0  0  0  0  0
   -7.0948   -0.0005   28.6307 C   0  0  0  0  0  0  0  0  0  0  0  0
   -8.2135    6.4622   27.3458 C   0  0  0  0  0  0  0  0  0  0  0  0
   -8.9991    6.5830   26.1793 C   0  0  0  0  0  0  0  0  0  0  0  0
   -9.1243    5.3565   25.4810 C   0  0  0  0  0  0  0  0  0  0  0  0
   -8.6072    4.1679   25.9802 C   0  0  0  0  0  0  0  0  0  0  0  0
   -3.4814   -1.3124   28.4563 C   0  0  0  0  0  0  0  0  0  0  0  0
   -2.7678   -1.0482   27.7896 F   0  0  0  0  0  0  0  0  0  0  0  0
   -3.6906   -2.7106   28.5580 F   0  0  0  0  0  0  0  0  0  0  0  0
   -2.8472   -0.9084   29.5836 F   0  0  0  0  0  0  0  0  0  0  0  0
  -10.0826    5.2939   24.0946 Cl  0  0  0  0  0  0  0  0  0  0  0  0
   -7.5512    1.5994   25.8833 O   0  0  0  0  0  0  0  0  0  0  0  0
  3  4  1  0
  4  5  1  0
  5  6  2  0
  6  7  1  0
  7  8  2  0
  5  9  1  0
  8  9  1  0
  7 14  1  0
 14 15  1  0
 14 16  1  0
 14 17  1  0
 12 18  1  0
  4 19  2  0
  3  1  1  0
  1  2  2  0
  2 10  1  0
 10 11  2  0
 11 12  1  0
 12 13  2  0
 13  1  1  0
M  END
$$$$
