No_8874-complexes_sdf/6BKW-FPZ/2024-09-17-14-21-01/
     RDKit          3D

 31 34  0  0  0  0  0  0  0  0999 V2000
   -7.2496    3.8871   27.4508 C   0  0  0  0  0  0  0  0  0  0  0  0
   -7.6161    2.7143   27.1523 C   0  0  0  0  0  0  0  0  0  0  0  0
   -6.9719    1.5838   27.5324 C   0  0  0  0  0  0  0  0  0  0  0  0
   -7.4590    0.2827   27.2615 C   0  0  0  0  0  0  0  0  0  0  0  0
   -8.7521    2.5117   26.3068 C   0  0  0  0  0  0  0  0  0  0  0  0
   -9.5643    3.6334   25.9825 C   0  0  0  0  0  0  0  0  0  0  0  0
   -8.0314    5.1004   27.2112 C   0  0  0  0  0  0  0  0  0  0  0  0
   -9.1347    4.9790   26.3962 C   0  0  0  0  0  0  0  0  0  0  0  0
   -8.6321    0.1714   26.5274 C   0  0  0  0  0  0  0  0  0  0  0  0
   -9.2988    1.2987   26.0110 C   0  0  0  0  0  0  0  0  0  0  0  0
   -7.5884    6.4056   27.7175 C   0  0  0  0  0  0  0  0  0  0  0  0
  -10.6524    3.6164   25.0485 C   0  0  0  0  0  0  0  0  0  0  0  0
  -11.9150    3.5649   25.5963 C   0  0  0  0  0  0  0  0  0  0  0  0
  -10.4824    3.6136   23.6732 C   0  0  0  0  0  0  0  0  0  0  0  0
  -11.4384    3.6371   22.7419 C   0  0  0  0  0  0  0  0  0  0  0  0
  -13.0191    3.6481   24.6983 C   0  0  0  0  0  0  0  0  0  0  0  0
  -12.7956    3.7183   23.3321 C   0  0  0  0  0  0  0  0  0  0  0  0
   -6.7639   -0.8949   27.7640 C   0  0  0  0  0  0  0  0  0  0  0  0
   -5.6059   -0.8437   28.1564 O   0  0  0  0  0  0  0  0  0  0  0  0
   -5.1450   -1.6310   29.1328 C   0  0  0  0  0  0  0  0  0  0  0  0
   -5.7468   -2.0082   29.9350 C   0  0  0  0  0  0  0  0  0  0  0  0
   -5.2552   -2.7845   31.0632 C   0  0  0  0  0  0  0  0  0  0  0  0
   -3.8769   -2.9418   31.1809 C   0  0  0  0  0  0  0  0  0  0  0  0
   -3.6308   -1.6257   29.2654 C   0  0  0  0  0  0  0  0  0  0  0  0
   -3.0624   -2.3088   30.2722 C   0  0  0  0  0  0  0  0  0  0  0  0
   -2.7807   -0.9083   28.2707 C   0  0  0  0  0  0  0  0  0  0  0  0
   -2.9419    0.4654   28.1411 C   0  0  0  0  0  0  0  0  0  0  0  0
   -3.8365    1.2182   28.5242 C   0  0  0  0  0  0  0  0  0  0  0  0
   -7.1246   -2.0568   27.1742 O   0  0  0  0  0  0  0  0  0  0  0  0
   -4.1135    2.4901   27.9481 N   0  0  0  0  0  0  0  0  0  0  0  0
   -8.3172    7.9633   26.9045 Br  0  0  0  0  0  0  0  0  0  0  0  0
  7 11  1  0
  6 12  1  0
  4 18  1  0
 18 19  1  0
 19 20  1  0
 24 26  1  0
 26 27  1  0
 27 28  2  0
 18 29  2  0
 28 30  2  0
 11 31  1  0
  2  3  1  0
  3  4  2  0
  4  9  1  0
  9 10  2  0
 10  5  1  0
 20 21  2  0
 21 22  1  0
 22 23  2  0
 23 25  1  0
 25 24  2  0
 24 20  1  0
  1  2  2  0
  2  5  1  0
  5  6  2  0
  6  8  1  0
  8  7  2  0
  7  1  1  0
 12 13  2  0
 13 16  1  0
 16 17  2  0
 17 15  1  0
 15 14  2  0
 14 12  1  0
M  END
$$$$
