No_8317-complexes_sdf/6BKW-FPZ/2024-09-17-14-21-01/
     RDKit          3D

 22 25  0  0  0  0  0  0  0  0999 V2000
   -7.2496    3.8871   27.4508 C   0  0  0  0  0  0  0  0  0  0  0  0
   -8.5096    4.0291   27.2770 C   0  0  0  0  0  0  0  0  0  0  0  0
   -9.2677    5.1714   27.5773 C   0  0  0  0  0  0  0  0  0  0  0  0
   -9.2765    2.8248   26.8371 C   0  0  0  0  0  0  0  0  0  0  0  0
   -8.6731    1.7312   26.5464 C   0  0  0  0  0  0  0  0  0  0  0  0
   -6.5216    2.6580   27.4010 C   0  0  0  0  0  0  0  0  0  0  0  0
   -7.2494    1.5864   26.9125 C   0  0  0  0  0  0  0  0  0  0  0  0
   -8.5606    6.4075   27.5870 C   0  0  0  0  0  0  0  0  0  0  0  0
  -10.6468    5.1200   27.9002 C   0  0  0  0  0  0  0  0  0  0  0  0
   -6.5582    0.3237   26.6794 C   0  0  0  0  0  0  0  0  0  0  0  0
   -5.5280    0.0008   27.5604 C   0  0  0  0  0  0  0  0  0  0  0  0
   -5.1603    0.9287   28.6379 C   0  0  0  0  0  0  0  0  0  0  0  0
   -3.9790    0.5553   29.3645 C   0  0  0  0  0  0  0  0  0  0  0  0
   -3.2542   -0.5501   29.1637 C   0  0  0  0  0  0  0  0  0  0  0  0
   -3.6567   -1.4265   28.1838 C   0  0  0  0  0  0  0  0  0  0  0  0
   -4.7320   -1.1455   27.3750 C   0  0  0  0  0  0  0  0  0  0  0  0
   -5.6322    2.2067   28.6097 N   0  0  0  0  0  0  0  0  0  0  0  0
  -11.2907    3.8795   28.0540 C   0  0  0  0  0  0  0  0  0  0  0  0
  -12.6414    3.7167   28.4249 C   0  0  0  0  0  0  0  0  0  0  0  0
  -10.6092    2.7011   27.5210 C   0  0  0  0  0  0  0  0  0  0  0  0
  -13.6704    4.3656   27.9867 C   0  0  0  0  0  0  0  0  0  0  0  0
  -15.0003    4.3549   28.4187 C   0  0  0  0  0  0  0  0  0  0  0  0
  2  3  1  0
  3  8  2  0
  3  9  1  0
  9 18  1  0
 18 19  2  3
  4 20  1  0
 18 20  1  0
 19 21  1  0
 21 22  1  0
  1  2  2  0
  2  4  1  0
  4  5  2  0
  5  7  1  0
  6  1  1  0
 12 13  1  0
 13 14  2  0
 14 15  1  0
 15 16  2  0
 16 11  1  0
  6  7  2  0
  7 10  1  0
 10 11  2  0
 11 12  1  0
 12 17  2  0
 17  6  1  0
M  END
$$$$
