No_8737-complexes_sdf/6BKW-FPZ/2024-09-17-14-21-01/
     RDKit          3D

 12 12  0  0  0  0  0  0  0  0999 V2000
   -7.7129    4.2099   27.0854 C   0  0  0  0  0  0  0  0  0  0  0  0
   -7.7814    5.1722   27.8972 C   0  0  0  0  0  0  0  0  0  0  0  0
   -8.8998    3.8713   26.3707 C   0  0  0  0  0  0  0  0  0  0  0  0
   -9.1401    2.5906   25.9433 C   0  0  0  0  0  0  0  0  0  0  0  0
   -8.6957    6.2523   27.8111 C   0  0  0  0  0  0  0  0  0  0  0  0
   -9.8872    5.9756   27.0647 C   0  0  0  0  0  0  0  0  0  0  0  0
   -9.9467    4.7871   26.4059 C   0  0  0  0  0  0  0  0  0  0  0  0
   -9.9761    1.8712   26.5433 C   0  0  0  0  0  0  0  0  0  0  0  0
  -10.0843    0.4307   26.3379 C   0  0  0  0  0  0  0  0  0  0  0  0
  -11.0197   -0.2738   27.1459 C   0  0  0  0  0  0  0  0  0  0  0  0
  -11.7694    0.3868   28.1684 C   0  0  0  0  0  0  0  0  0  0  0  0
  -11.5914    1.7109   28.4117 C   0  0  0  0  0  0  0  0  0  0  0  0
  1  2  1  0
  1  3  1  0
  3  4  2  3
  2  5  1  0
  5  6  1  0
  3  7  1  0
  6  7  1  0
  4  8  1  0
  8  9  2  3
  9 10  1  0
 10 11  2  3
 11 12  1  0
M  END
$$$$
