No_8976-complexes_sdf/6BKW-FPZ/2024-09-17-14-21-01/
     RDKit          3D

 31 35  0  0  0  0  0  0  0  0999 V2000
   -7.2496    3.8871   27.4508 C   0  0  0  0  0  0  0  0  0  0  0  0
   -7.6161    2.7143   27.1523 C   0  0  0  0  0  0  0  0  0  0  0  0
   -6.9719    1.5838   27.5324 C   0  0  0  0  0  0  0  0  0  0  0  0
   -7.4590    0.2827   27.2615 C   0  0  0  0  0  0  0  0  0  0  0  0
   -8.7521    2.5117   26.3068 C   0  0  0  0  0  0  0  0  0  0  0  0
   -9.2100    1.2391   25.9794 C   0  0  0  0  0  0  0  0  0  0  0  0
   -8.5134    0.1313   26.5112 C   0  0  0  0  0  0  0  0  0  0  0  0
   -8.0343    5.0565   27.1688 C   0  0  0  0  0  0  0  0  0  0  0  0
   -9.1387    5.0244   26.3111 C   0  0  0  0  0  0  0  0  0  0  0  0
   -9.5547    3.6826   25.9029 C   0  0  0  0  0  0  0  0  0  0  0  0
   -7.5880    6.4104   27.6699 C   0  0  0  0  0  0  0  0  0  0  0  0
   -8.3224    7.4666   27.2559 N   0  0  0  0  0  0  0  0  0  0  0  0
   -6.7114   -0.8875   27.8449 C   0  0  0  0  0  0  0  0  0  0  0  0
   -5.6978   -0.5677   28.4261 F   0  0  0  0  0  0  0  0  0  0  0  0
   -7.5273   -1.4880   28.7586 F   0  0  0  0  0  0  0  0  0  0  0  0
   -6.4418   -1.7846   26.8811 F   0  0  0  0  0  0  0  0  0  0  0  0
  -10.6789    3.5953   25.0070 C   0  0  1  0  0  0  0  0  0  0  0  0
  -10.5943    3.9478   23.7984 N   0  0  0  0  0  0  0  0  0  0  0  0
   -9.8170    4.6228   23.2220 C   0  0  0  0  0  0  0  0  0  0  0  0
  -11.9270    3.7945   23.1924 C   0  0  1  0  0  0  0  0  0  0  0  0
  -11.7262    2.8333   25.5221 C   0  0  0  0  0  0  0  0  0  0  0  0
  -12.8986    2.7644   24.9727 C   0  0  0  0  0  0  0  0  0  0  0  0
  -13.0035    3.2606   23.7022 C   0  0  0  0  0  0  0  0  0  0  0  0
  -11.9524    4.4344   21.8046 C   0  0  0  0  0  0  0  0  0  0  0  0
  -10.7771    4.9188   21.3438 C   0  0  0  0  0  0  0  0  0  0  0  0
   -9.6680    5.1153   22.0282 C   0  0  0  0  0  0  0  0  0  0  0  0
  -14.2411    3.2662   22.9351 C   0  0  0  0  0  0  0  0  0  0  0  0
  -15.3188    2.5172   23.5914 C   0  0  0  0  0  0  0  0  0  0  0  0
  -15.1339    2.1216   24.8868 C   0  0  0  0  0  0  0  0  0  0  0  0
  -14.0110    2.1377   25.5934 C   0  0  0  0  0  0  0  0  0  0  0  0
   -6.6304    6.5056   28.3942 O   0  0  0  0  0  0  0  0  0  0  0  0
  8 11  1  0
 11 12  2  0
  4 13  1  0
 13 14  1  0
 13 15  1  0
 13 16  1  0
 17 10  1  6
 17 18  1  0
 18 19  1  0
 18 20  1  0
 17 21  1  0
 20 24  1  1
 25 26  1  0
 11 31  1  0
 21 22  1  0
 23 20  1  0
 19 26  1  0
 25 24  1  0
 22 23  2  0
 23 27  1  0
 27 28  2  0
 28 29  1  0
 29 30  2  0
 30 22  1  0
  2  3  1  0
  3  4  2  0
  4  7  1  0
  7  6  2  0
  6  5  1  0
  1  2  2  0
  2  5  1  0
  5 10  2  0
 10  9  1  0
  9  8  2  0
  8  1  1  0
M  END
$$$$
