No_8266-complexes_sdf/6BKW-FPZ/2024-09-17-14-21-01/
     RDKit          3D

 40 46  0  0  0  0  0  0  0  0999 V2000
   -7.9040    3.9820   27.1177 C   0  0  0  0  0  0  0  0  0  0  0  0
   -7.8663    4.8694   27.9238 C   0  0  0  0  0  0  0  0  0  0  0  0
   -9.0501    3.8017   26.2617 C   0  0  0  0  0  0  0  0  0  0  0  0
  -10.0189    4.7608   26.3707 C   0  0  0  0  0  0  0  0  0  0  0  0
   -8.6973    5.9722   27.8968 C   0  0  0  0  0  0  0  0  0  0  0  0
   -9.8216    5.8946   27.1241 C   0  0  0  0  0  0  0  0  0  0  0  0
   -9.1445    2.6271   25.4265 C   0  0  0  0  0  0  0  0  0  0  0  0
   -8.6278    1.4932   25.7983 N   0  0  0  0  0  0  0  0  0  0  0  0
   -8.4918    0.4351   24.9895 C   0  0  0  0  0  0  0  0  0  0  0  0
   -9.7230    2.7608   24.3120 O   0  0  0  0  0  0  0  0  0  0  0  0
   -7.4739   -0.4610   25.3870 C   0  0  0  0  0  0  0  0  0  0  0  0
   -6.8512   -0.4012   26.6576 C   0  0  0  0  0  0  0  0  0  0  0  0
   -7.1663    0.7736   27.4738 C   0  0  0  0  0  0  0  0  0  0  0  0
   -7.8919    1.6471   27.0355 C   0  0  1  0  0  0  0  0  0  0  0  0
   -7.7624    2.8305   27.6536 N   0  0  0  0  0  0  0  0  0  0  0  0
   -5.9728   -1.5032   27.0879 C   0  0  0  0  0  0  0  0  0  0  0  0
   -5.3157   -2.1044   26.3721 C   0  0  0  0  0  0  0  0  0  0  0  0
   -4.3959   -3.1239   26.7470 C   0  0  0  0  0  0  0  0  0  0  0  0
   -4.2312   -3.3685   28.1132 C   0  0  0  0  0  0  0  0  0  0  0  0
   -5.8659   -1.6466   28.5964 C   0  0  0  0  0  0  0  0  0  0  0  0
   -5.0020   -2.6016   29.0652 C   0  0  0  0  0  0  0  0  0  0  0  0
   -4.8699   -2.8114   30.5061 C   0  0  2  0  0  0  0  0  0  0  0  0
   -3.9763   -1.9566   31.1367 C   0  0  0  0  0  0  0  0  0  0  0  0
   -3.3468   -0.9539   30.5825 C   0  0  0  0  0  0  0  0  0  0  0  0
   -3.0852    0.2830   31.3551 C   0  0  0  0  0  0  0  0  0  0  0  0
   -2.9441    0.1013   32.7559 C   0  0  0  0  0  0  0  0  0  0  0  0
   -3.3856   -0.9805   33.4053 C   0  0  0  0  0  0  0  0  0  0  0  0
   -4.0577   -1.9344   32.6378 C   0  0  0  0  0  0  0  0  0  0  0  0
   -4.5679   -4.1825   30.8120 C   0  0  1  0  0  0  0  0  0  0  0  0
   -6.4043   -2.5248   30.9956 C   0  0  0  0  0  0  0  0  0  0  0  0
   -5.4391   -5.0508   31.2529 C   0  0  0  0  0  0  0  0  0  0  0  0
   -7.2718   -3.5246   31.3780 C   0  0  1  0  0  0  0  0  0  0  0  0
   -8.5801   -3.0906   31.8582 C   0  0  0  0  0  0  0  0  0  0  0  0
   -7.0122   -4.7446   30.9434 C   0  0  0  0  0  0  0  0  0  0  0  0
   -9.6620   -2.9625   30.9566 C   0  0  0  0  0  0  0  0  0  0  0  0
  -10.9286   -2.6371   31.4154 C   0  0  0  0  0  0  0  0  0  0  0  0
  -11.1601   -2.4772   32.8034 C   0  0  0  0  0  0  0  0  0  0  0  0
  -10.1081   -2.6830   33.7087 C   0  0  0  0  0  0  0  0  0  0  0  0
   -8.8564   -2.9717   33.2692 C   0  0  0  0  0  0  0  0  0  0  0  0
   -3.6549   -4.8463   29.7241 C   0  0  0  0  0  0  0  0  0  0  0  0
  3  7  1  0
  7  8  1  0
  8  9  1  0
  7 10  2  0
 11 12  1  0
  8 14  1  0
 14 13  1  6
  1 15  1  0
 14 15  1  0
 12 16  1  0
 22 21  1  6
 22 23  1  0
 22 29  1  0
 22 30  1  0
 30 32  1  0
 32 33  1  6
 31 34  1  0
 32 34  1  0
 29 40  1  6
  9 11  1  0
 12 13  1  0
 29 31  1  0
 33 35  2  0
 35 36  1  0
 36 37  2  0
 37 38  1  0
 38 39  2  0
 39 33  1  0
 23 24  2  0
 24 25  1  0
 25 26  2  0
 26 27  1  0
 27 28  2  0
 28 23  1  0
 16 17  2  0
 17 18  1  0
 18 19  2  0
 19 21  1  0
 21 20  2  0
 20 16  1  0
  1  2  2  0
  2  5  1  0
  5  6  2  0
  6  4  1  0
  4  3  2  0
  3  1  1  0
M  END
$$$$
