No_8591-complexes_sdf/6BKW-FPZ/2024-09-17-14-21-01/
     RDKit          3D

 40 45  0  0  0  0  0  0  0  0999 V2000
   -7.9040    3.9820   27.1177 C   0  0  0  0  0  0  0  0  0  0  0  0
   -7.8663    4.8694   27.9238 C   0  0  0  0  0  0  0  0  0  0  0  0
   -9.0501    3.8017   26.2617 C   0  0  0  0  0  0  0  0  0  0  0  0
   -9.1826    2.7026   25.3575 C   0  0  0  0  0  0  0  0  0  0  0  0
   -8.6940    6.0131   27.8614 C   0  0  0  0  0  0  0  0  0  0  0  0
   -9.9755    4.8547   26.2361 C   0  0  0  0  0  0  0  0  0  0  0  0
   -9.7463    5.9398   27.0364 C   0  0  0  0  0  0  0  0  0  0  0  0
  -10.1068    2.7543   24.3357 C   0  0  0  0  0  0  0  0  0  0  0  0
  -10.9412    3.9321   24.2588 C   0  0  0  0  0  0  0  0  0  0  0  0
  -10.8832    4.8692   25.1581 C   0  0  0  0  0  0  0  0  0  0  0  0
  -11.9497    3.8836   23.1729 C   0  0  1  0  0  0  0  0  0  0  0  0
  -13.1600    3.7015   23.2315 C   0  0  0  0  0  0  0  0  0  0  0  0
  -11.3683    4.2061   21.8327 C   0  0  0  0  0  0  0  0  0  0  0  0
  -13.8135    3.5773   24.4566 C   0  0  0  0  0  0  0  0  0  0  0  0
  -15.2092    3.4536   24.6183 C   0  0  0  0  0  0  0  0  0  0  0  0
  -15.9218    3.3587   23.4698 C   0  0  0  0  0  0  0  0  0  0  0  0
  -14.0700    3.7225   22.1257 C   0  0  0  0  0  0  0  0  0  0  0  0
  -15.4140    3.5223   22.2524 C   0  0  0  0  0  0  0  0  0  0  0  0
   -6.9502    2.7915   27.2863 C   0  0  0  0  0  0  0  0  0  0  0  0
   -5.7333    3.0555   27.7701 N   0  0  0  0  0  0  0  0  0  0  0  0
   -7.2379    1.5577   27.0327 N   0  0  0  0  0  0  0  0  0  0  0  0
   -6.1575    0.7647   27.4412 C   0  0  0  0  0  0  0  0  0  0  0  0
   -5.2329    1.7130   27.8934 C   0  0  0  0  0  0  0  0  0  0  0  0
   -6.0136   -0.6176   27.3455 C   0  0  2  0  0  0  0  0  0  0  0  0
   -6.8213   -1.3534   27.0426 N   0  0  0  0  0  0  0  0  0  0  0  0
   -8.0991   -1.2675   27.2533 C   0  0  0  0  0  0  0  0  0  0  0  0
   -9.0753   -2.1715   26.5764 C   0  0  0  0  0  0  0  0  0  0  0  0
   -9.9965   -2.7135   27.2629 C   0  0  0  0  0  0  0  0  0  0  0  0
  -10.6442   -1.9825   28.3917 C   0  0  0  0  0  0  0  0  0  0  0  0
   -9.8714   -0.8634   28.8426 C   0  0  0  0  0  0  0  0  0  0  0  0
   -8.7262   -0.6492   28.4686 C   0  0  0  0  0  0  0  0  0  0  0  0
   -6.6603   -1.7652   25.5861 C   0  0  0  0  0  0  0  0  0  0  0  0
   -5.6681   -2.3678   25.5206 C   0  0  0  0  0  0  0  0  0  0  0  0
   -4.7790   -1.1435   28.0059 C   0  0  0  0  0  0  0  0  0  0  0  0
   -3.8469   -1.8664   27.1629 C   0  0  1  0  0  0  0  0  0  0  0  0
   -2.5342   -2.0899   27.7346 C   0  0  0  0  0  0  0  0  0  0  0  0
   -4.2526   -2.4678   25.9468 C   0  0  0  0  0  0  0  0  0  0  0  0
   -1.5684   -1.9603   27.0290 C   0  0  0  0  0  0  0  0  0  0  0  0
   -0.1588   -2.1365   27.4143 C   0  0  0  0  0  0  0  0  0  0  0  0
    0.9494   -2.0427   26.5773 C   0  0  0  0  0  0  0  0  0  0  0  0
  9 11  1  0
 11 12  1  0
 11 13  1  1
  1 19  1  0
 19 20  2  0
 19 21  1  0
 21 22  1  0
 20 23  1  0
 22 23  2  0
 24 22  1  1
 24 25  1  0
 25 26  1  0
 25 32  1  0
 32 33  2  0
 24 34  1  0
 35 34  1  1
 35 36  1  0
 33 37  1  0
 35 37  1  0
 36 38  2  3
 38 39  1  0
 39 40  2  0
 12 14  2  0
 14 15  1  0
 15 16  2  0
 16 18  1  0
 18 17  2  0
 17 12  1  0
  3  4  2  0
  4  8  1  0
  8  9  2  0
  9 10  1  0
 10  6  2  0
  1  2  2  0
  2  5  1  0
  5  7  2  0
  7  6  1  0
  6  3  1  0
  3  1  1  0
 26 27  2  0
 27 28  1  0
 28 29  2  0
 29 30  1  0
 30 31  2  0
 31 26  1  0
M  END
$$$$
