No_8918-complexes_sdf/6BKW-FPZ/2024-09-17-14-21-01/
     RDKit          3D

 19 21  0  0  0  0  0  0  0  0999 V2000
   -7.2496    3.8871   27.4508 C   0  0  0  0  0  0  0  0  0  0  0  0
   -7.9379    4.9063   27.8518 C   0  0  0  0  0  0  0  0  0  0  0  0
   -9.3460    4.8223   27.8695 C   0  0  0  0  0  0  0  0  0  0  0  0
   -7.8628    2.6163   27.1065 C   0  0  0  0  0  0  0  0  0  0  0  0
   -9.2787    2.5744   27.1970 C   0  0  0  0  0  0  0  0  0  0  0  0
  -10.0108    3.6770   27.6340 C   0  0  0  0  0  0  0  0  0  0  0  0
  -11.4834    3.5674   27.7432 C   0  0  0  0  0  0  0  0  0  0  0  0
  -12.3295    3.8838   27.2730 C   0  0  0  0  0  0  0  0  0  0  0  0
  -12.1286    4.7255   25.9621 C   0  0  0  0  0  0  0  0  0  0  0  0
  -12.0317    3.9841   24.8743 C   0  0  0  0  0  0  0  0  0  0  0  0
  -11.0853    4.4633   23.9359 C   0  0  0  0  0  0  0  0  0  0  0  0
  -10.9124    3.8743   22.6539 C   0  0  0  0  0  0  0  0  0  0  0  0
  -11.5871    2.6552   22.4591 C   0  0  0  0  0  0  0  0  0  0  0  0
  -12.5802    2.8051   24.4509 C   0  0  0  0  0  0  0  0  0  0  0  0
  -13.5515    2.3024   25.4358 C   0  0  0  0  0  0  0  0  0  0  0  0
  -12.4267    2.1961   23.2925 C   0  0  0  0  0  0  0  0  0  0  0  0
  -13.6934    3.4303   27.2088 C   0  0  0  0  0  0  0  0  0  0  0  0
  -14.0609    2.3898   26.4792 C   0  0  0  0  0  0  0  0  0  0  0  0
  -11.6287    2.9985   29.1192 F   0  0  0  0  0  0  0  0  0  0  0  0
  6  7  1  0
  7  8  2  3
  8  9  1  0
  9 10  1  0
 14 15  1  0
  8 17  1  0
 15 18  2  0
 17 18  1  0
  7 19  1  0
 10 11  2  0
 11 12  1  0
 12 13  2  0
 13 16  1  0
 16 14  2  0
 14 10  1  0
  1  2  2  0
  2  3  1  0
  3  6  2  0
  6  5  1  0
  5  4  2  0
  4  1  1  0
M  END
$$$$
