No_8813-complexes_sdf/6BKW-FPZ/2024-09-17-14-21-01/
     RDKit          3D

 22 24  0  0  0  0  0  0  0  0999 V2000
   -7.9040    3.9820   27.1177 C   0  0  0  0  0  0  0  0  0  0  0  0
   -8.2057    2.8231   26.8733 C   0  0  0  0  0  0  0  0  0  0  0  0
   -9.2962    2.4021   26.1155 C   0  0  0  0  0  0  0  0  0  0  0  0
   -8.7358    5.0662   26.5917 C   0  0  0  0  0  0  0  0  0  0  0  0
   -9.7618    4.7023   25.7546 C   0  0  0  0  0  0  0  0  0  0  0  0
  -10.0066    3.4105   25.4922 C   0  0  0  0  0  0  0  0  0  0  0  0
   -8.3936    6.4769   26.8843 C   0  0  0  0  0  0  0  0  0  0  0  0
   -8.0595    6.8026   28.2082 C   0  0  0  0  0  0  0  0  0  0  0  0
   -8.5406    7.4550   25.9076 C   0  0  0  0  0  0  0  0  0  0  0  0
   -7.3559    1.6546   27.4783 C   0  0  0  0  0  0  0  0  0  0  0  0
   -7.7154    0.3310   27.3767 C   0  0  0  0  0  0  0  0  0  0  0  0
   -6.8160   -0.6280   27.7487 C   0  0  0  0  0  0  0  0  0  0  0  0
   -5.5523   -0.2543   28.2556 C   0  0  0  0  0  0  0  0  0  0  0  0
   -5.1574    1.0978   28.2318 C   0  0  0  0  0  0  0  0  0  0  0  0
   -5.9653    2.0271   27.7933 C   0  0  0  0  0  0  0  0  0  0  0  0
   -4.6135   -1.2994   28.7734 C   0  0  0  0  0  0  0  0  0  0  0  0
   -3.4656   -1.0671   28.9043 C   0  0  0  0  0  0  0  0  0  0  0  0
   -2.9440    0.3570   28.8477 C   0  0  0  0  0  0  0  0  0  0  0  0
   -3.7607    1.3447   28.5371 C   0  0  0  0  0  0  0  0  0  0  0  0
  -11.1048    3.0827   24.5723 C   0  0  0  0  0  0  0  0  0  0  0  0
  -12.2866    2.8275   24.9954 C   0  0  0  0  0  0  0  0  0  0  0  0
  -13.3463    2.4929   24.0866 C   0  0  0  0  0  0  0  0  0  0  0  0
  4  7  1  0
  7  8  2  0
  7  9  1  0
  2 10  1  0
  6 20  1  0
 20 21  2  3
 21 22  1  0
  1  2  2  0
  2  3  1  0
  3  6  2  0
  6  5  1  0
  5  4  2  0
  4  1  1  0
 10 11  2  0
 11 12  1  0
 12 13  2  0
 14 15  2  0
 15 10  1  0
 13 14  1  0
 14 19  1  0
 19 18  2  0
 18 17  1  0
 17 16  2  0
 16 13  1  0
M  END
$$$$
