No_8841-complexes_sdf/6BKW-FPZ/2024-09-17-14-21-01/
     RDKit          3D

 22 25  0  0  0  0  0  0  0  0999 V2000
   -7.9040    3.9820   27.1177 C   0  0  0  0  0  0  0  0  0  0  0  0
   -8.2057    2.8231   26.8733 C   0  0  0  0  0  0  0  0  0  0  0  0
   -9.2962    2.4021   26.1155 C   0  0  0  0  0  0  0  0  0  0  0  0
   -6.8682    4.5169   28.0704 C   0  0  0  0  0  0  0  0  0  0  0  0
  -10.0578    3.3688   25.5520 C   0  0  0  0  0  0  0  0  0  0  0  0
   -9.6997    4.7480   25.6981 C   0  0  0  0  0  0  0  0  0  0  0  0
   -8.6783    5.1111   26.5262 C   0  0  0  0  0  0  0  0  0  0  0  0
  -11.1704    3.0677   24.6150 C   0  0  2  0  0  0  0  0  0  0  0  0
  -11.2492    3.6669   23.4645 C   0  0  0  0  0  0  0  0  0  0  0  0
  -12.2943    3.5867   22.5881 C   0  0  0  0  0  0  0  0  0  0  0  0
  -13.3507    2.7276   22.9737 C   0  0  0  0  0  0  0  0  0  0  0  0
  -12.2563    2.3258   25.0178 C   0  0  2  0  0  0  0  0  0  0  0  0
  -13.3368    2.1802   24.1991 C   0  0  2  0  0  0  0  0  0  0  0  0
   -7.0255    5.6371   28.6884 N   0  0  0  0  0  0  0  0  0  0  0  0
   -5.7473    3.8392   28.0655 N   0  0  0  0  0  0  0  0  0  0  0  0
  -14.4995    1.3273   24.5873 C   0  0  0  0  0  0  0  0  0  0  0  0
  -14.5349    0.8466   25.8834 C   0  0  0  0  0  0  0  0  0  0  0  0
  -13.3763    1.1034   26.7171 C   0  0  0  0  0  0  0  0  0  0  0  0
  -12.2955    1.7969   26.4112 C   0  0  0  0  0  0  0  0  0  0  0  0
  -15.5925    1.1588   23.7430 C   0  0  0  0  0  0  0  0  0  0  0  0
  -15.3679    1.4688   22.4593 C   0  0  0  0  0  0  0  0  0  0  0  0
  -14.3900    2.4676   22.0612 C   0  0  0  0  0  0  0  0  0  0  0  0
  1  2  2  0
  2  3  1  0
  1  4  1  0
  3  5  2  0
  5  6  1  0
  1  7  1  0
  6  7  2  0
  8  5  1  1
  8  9  1  0
  9 10  2  0
 10 11  1  0
  8 12  1  0
 13 11  1  6
 12 13  1  0
  4 14  2  0
  4 15  1  0
 13 16  1  0
 16 17  2  0
 17 18  1  0
 12 19  1  1
 18 19  2  0
 16 20  1  0
 20 21  2  0
 11 22  1  0
 21 22  1  0
M  END
$$$$
