No_8783-complexes_sdf/6BKW-FPZ/2024-09-17-14-21-01/
     RDKit          3D

 23 25  0  0  0  0  0  0  0  0999 V2000
   -7.9040    3.9820   27.1177 C   0  0  0  0  0  0  0  0  0  0  0  0
   -8.2057    2.8231   26.8733 C   0  0  0  0  0  0  0  0  0  0  0  0
   -8.7695    5.0740   26.7916 C   0  0  0  0  0  0  0  0  0  0  0  0
   -8.4337    6.4678   27.0913 C   0  0  0  0  0  0  0  0  0  0  0  0
   -9.3742    2.4311   26.2346 C   0  0  0  0  0  0  0  0  0  0  0  0
  -10.2395    3.4267   25.8887 C   0  0  0  0  0  0  0  0  0  0  0  0
   -9.9567    4.7548   26.1374 C   0  0  0  0  0  0  0  0  0  0  0  0
   -7.8894    6.9001   28.1379 N   0  0  0  0  0  0  0  0  0  0  0  0
   -8.5657    7.3336   26.1222 O   0  0  0  0  0  0  0  0  0  0  0  0
   -7.2485    1.6807   27.2906 C   0  0  1  0  0  0  0  0  0  0  0  0
   -5.8775    2.1115   28.1135 Cl  0  0  0  0  0  0  0  0  0  0  0  0
   -7.6467    0.3202   27.3053 C   0  0  0  0  0  0  0  0  0  0  0  0
   -6.8009   -0.5764   27.0309 C   0  0  0  0  0  0  0  0  0  0  0  0
   -7.1750   -1.9200   26.9651 C   0  0  0  0  0  0  0  0  0  0  0  0
   -8.5403   -2.1967   27.2501 C   0  0  0  0  0  0  0  0  0  0  0  0
   -9.4428   -1.1917   27.5519 C   0  0  0  0  0  0  0  0  0  0  0  0
   -8.9892    0.1278   27.6346 C   0  0  0  0  0  0  0  0  0  0  0  0
  -11.4438    3.1634   25.0923 C   0  0  0  0  0  0  0  0  0  0  0  0
  -11.6082    3.7123   23.8759 C   0  0  0  0  0  0  0  0  0  0  0  0
  -12.7352    3.7463   23.1774 C   0  0  0  0  0  0  0  0  0  0  0  0
  -12.4222    2.3401   25.5862 C   0  0  0  0  0  0  0  0  0  0  0  0
  -13.6401    2.2616   24.8994 C   0  0  0  0  0  0  0  0  0  0  0  0
  -13.7734    2.9521   23.6872 C   0  0  0  0  0  0  0  0  0  0  0  0
  3  4  1  0
  4  8  1  0
  4  9  2  0
  2 10  1  0
 10 11  1  1
 10 12  1  0
  6 18  1  0
 12 13  2  0
 13 14  1  0
 14 15  2  0
 15 16  1  0
 16 17  2  0
 17 12  1  0
  1  2  2  0
  2  5  1  0
  5  6  2  0
  6  7  1  0
  7  3  2  0
  3  1  1  0
 18 19  2  0
 19 20  1  0
 20 23  2  0
 23 22  1  0
 22 21  2  0
 21 18  1  0
M  END
$$$$
