No_8643-complexes_sdf/6BKW-FPZ/2024-09-17-14-21-01/
     RDKit          3D

 22 24  0  0  0  0  0  0  0  0999 V2000
   -7.2496    3.8871   27.4508 C   0  0  0  0  0  0  0  0  0  0  0  0
   -8.5096    4.0291   27.2770 C   0  0  0  0  0  0  0  0  0  0  0  0
   -9.3451    2.8786   26.9046 C   0  0  0  0  0  0  0  0  0  0  0  0
  -10.6709    3.0505   26.6789 C   0  0  0  0  0  0  0  0  0  0  0  0
   -6.7644    2.5802   27.4391 N   0  0  0  0  0  0  0  0  0  0  0  0
   -7.4578    1.5113   27.2244 C   0  0  0  0  0  0  0  0  0  0  0  0
   -8.7759    1.6690   26.9338 C   0  0  0  0  0  0  0  0  0  0  0  0
  -11.2521    4.1087   26.3844 N   0  0  0  0  0  0  0  0  0  0  0  0
  -11.6745    2.0203   27.0672 C   0  0  0  0  0  0  0  0  0  0  0  0
  -12.8529    2.2588   27.1200 C   0  0  0  0  0  0  0  0  0  0  0  0
  -12.5775    4.5024   26.4164 C   0  0  0  0  0  0  0  0  0  0  0  0
  -13.4149    3.5483   26.7382 C   0  0  0  0  0  0  0  0  0  0  0  0
   -6.7613    0.2347   27.1387 C   0  0  0  0  0  0  0  0  0  0  0  0
   -5.5370    0.0857   27.7472 C   0  0  0  0  0  0  0  0  0  0  0  0
   -4.9718    0.9407   28.3805 C   0  0  0  0  0  0  0  0  0  0  0  0
   -3.6288    0.7765   29.0077 C   0  0  0  0  0  0  0  0  0  0  0  0
   -3.0026   -0.4644   28.9106 C   0  0  0  0  0  0  0  0  0  0  0  0
   -3.6457   -1.4422   28.1598 C   0  0  0  0  0  0  0  0  0  0  0  0
   -4.8715   -1.2159   27.5878 C   0  0  0  0  0  0  0  0  0  0  0  0
  -14.8687    3.8242   26.7498 C   0  0  0  0  0  0  0  0  0  0  0  0
  -15.7050    3.1541   26.3355 C   0  0  0  0  0  0  0  0  0  0  0  0
  -17.1091    3.4939   26.3692 C   0  0  0  0  0  0  0  0  0  0  0  0
  3  4  1  0
  6 13  1  0
 13 14  1  0
 12 20  1  0
 20 21  2  3
 21 22  1  0
  1  2  2  0
  2  3  1  0
  3  7  2  0
  7  6  1  0
  6  5  2  0
  5  1  1  0
  4  8  2  0
  8 11  1  0
 11 12  2  0
 12 10  1  0
 10  9  2  0
  9  4  1  0
 14 15  2  0
 15 16  1  0
 16 17  2  0
 17 18  1  0
 18 19  2  0
 19 14  1  0
M  END
$$$$
