No_8676-complexes_sdf/6BKW-FPZ/2024-09-17-14-21-01/
     RDKit          3D

 30 33  0  0  0  0  0  0  0  0999 V2000
   -7.2496    3.8871   27.4508 C   0  0  0  0  0  0  0  0  0  0  0  0
   -7.6161    2.7143   27.1523 C   0  0  0  0  0  0  0  0  0  0  0  0
   -7.1619    1.8631   27.5232 C   0  0  0  0  0  0  0  0  0  0  0  0
   -8.0036    5.1085   27.2100 C   0  0  2  0  0  0  0  0  0  0  0  0
   -9.0764    5.1562   26.4023 C   0  0  0  0  0  0  0  0  0  0  0  0
   -9.5423    3.9741   25.8512 C   0  0  0  0  0  0  0  0  0  0  0  0
   -8.8464    2.7352   26.2619 C   0  0  1  0  0  0  0  0  0  0  0  0
   -6.6340    0.7378   27.0346 C   0  0  0  0  0  0  0  0  0  0  0  0
   -6.1015   -0.0670   27.3909 C   0  0  0  0  0  0  0  0  0  0  0  0
   -5.2546    0.1417   28.5259 C   0  0  0  0  0  0  0  0  0  0  0  0
   -4.6112   -0.9685   29.2417 C   0  0  0  0  0  0  0  0  0  0  0  0
   -4.6183   -2.1316   28.5936 C   0  0  0  0  0  0  0  0  0  0  0  0
   -5.2696   -2.3943   27.4693 C   0  0  0  0  0  0  0  0  0  0  0  0
   -5.9969   -1.3786   26.8861 C   0  0  0  0  0  0  0  0  0  0  0  0
   -7.5090    6.2720   27.7686 F   0  0  0  0  0  0  0  0  0  0  0  0
  -10.6013    3.9491   24.9033 C   0  0  0  0  0  0  0  0  0  0  0  0
  -10.4133    4.1556   23.5353 C   0  0  0  0  0  0  0  0  0  0  0  0
  -11.9026    3.7384   25.3615 C   0  0  0  0  0  0  0  0  0  0  0  0
  -12.2266    3.5289   26.7379 C   0  0  0  0  0  0  0  0  0  0  0  0
  -13.5474    3.5270   27.1658 C   0  0  0  0  0  0  0  0  0  0  0  0
  -11.4287    4.2246   22.6286 C   0  0  0  0  0  0  0  0  0  0  0  0
  -12.7705    3.9939   23.1621 C   0  0  0  0  0  0  0  0  0  0  0  0
  -12.9809    3.8344   24.4759 C   0  0  0  0  0  0  0  0  0  0  0  0
  -14.5485    3.6174   26.2141 C   0  0  0  0  0  0  0  0  0  0  0  0
  -14.3406    3.8398   24.9010 C   0  0  0  0  0  0  0  0  0  0  0  0
   -3.8263   -0.6388   30.4648 C   0  0  0  0  0  0  0  0  0  0  0  0
   -4.0154    0.4526   30.8532 F   0  0  0  0  0  0  0  0  0  0  0  0
   -4.1778   -1.5752   31.4297 F   0  0  0  0  0  0  0  0  0  0  0  0
   -2.5251   -0.8525   30.1569 F   0  0  0  0  0  0  0  0  0  0  0  0
   -9.2546    1.6545   25.7720 F   0  0  0  0  0  0  0  0  0  0  0  0
  1  2  1  0
  2  3  2  3
  1  4  1  0
  4  5  1  0
  5  6  1  0
  2  7  1  0
  6  7  1  0
  3  8  1  0
  4 15  1  6
  6 16  1  0
 11 26  1  0
 26 27  1  0
 26 28  1  0
 26 29  1  0
  7 30  1  6
  8  9  1  0
 16 17  2  0
 17 21  1  0
 21 22  2  0
 22 23  1  0
 18 16  1  0
 18 19  2  0
 19 20  1  0
 20 24  2  0
 24 25  1  0
 25 23  2  0
 23 18  1  0
  9 10  2  0
 10 11  1  0
 11 12  2  0
 12 13  1  0
 13 14  2  0
 14  9  1  0
M  END
$$$$
