No_8762-complexes_sdf/6BKW-FPZ/2024-09-17-14-21-01/
     RDKit          3D

 40 45  0  0  0  0  0  0  0  0999 V2000
   -7.2496    3.8871   27.4508 C   0  0  0  0  0  0  0  0  0  0  0  0
   -7.9379    4.9063   27.8518 C   0  0  0  0  0  0  0  0  0  0  0  0
   -9.3460    4.8223   27.8695 C   0  0  0  0  0  0  0  0  0  0  0  0
   -7.8628    2.6163   27.1065 C   0  0  0  0  0  0  0  0  0  0  0  0
   -9.2787    2.5744   27.1970 C   0  0  0  0  0  0  0  0  0  0  0  0
  -10.0108    3.6770   27.6340 C   0  0  0  0  0  0  0  0  0  0  0  0
  -11.5178    3.7574   27.7698 C   0  0  0  0  0  0  0  0  0  0  0  0
  -11.9381    3.1535   28.8903 C   0  0  0  0  0  0  0  0  0  0  0  0
  -13.3442    3.1231   29.2495 C   0  0  0  0  0  0  0  0  0  0  0  0
  -14.1801    3.8602   28.3760 C   0  0  0  0  0  0  0  0  0  0  0  0
  -13.6692    4.4615   27.2523 C   0  0  0  0  0  0  0  0  0  0  0  0
  -12.3068    4.4874   26.9751 C   0  0  0  0  0  0  0  0  0  0  0  0
   -7.1889    1.5437   26.7857 N   0  0  0  0  0  0  0  0  0  0  0  0
   -6.2316    0.9970   27.6290 C   0  0  0  0  0  0  0  0  0  0  0  0
   -5.6112   -0.2442   27.3242 C   0  0  0  0  0  0  0  0  0  0  0  0
   -7.6444    0.6791   25.8471 C   0  0  0  0  0  0  0  0  0  0  0  0
   -4.4974   -0.6122   28.1055 C   0  0  0  0  0  0  0  0  0  0  0  0
   -4.0147    0.2277   29.1403 C   0  0  0  0  0  0  0  0  0  0  0  0
   -4.5349    1.5674   29.2184 C   0  0  0  0  0  0  0  0  0  0  0  0
   -5.4727    1.9306   28.4333 C   0  0  0  0  0  0  0  0  0  0  0  0
   -8.8231    0.4652   25.7298 C   0  0  2  0  0  0  0  0  0  0  0  0
   -9.9079    1.5045   26.4751 C   0  0  2  0  0  0  0  0  0  0  0  0
   -7.1568    6.3800   28.3602 Cl  0  0  0  0  0  0  0  0  0  0  0  0
  -11.2761    1.3917   26.3030 C   0  0  0  0  0  0  0  0  0  0  0  0
  -11.9392    0.3564   25.8236 C   0  0  0  0  0  0  0  0  0  0  0  0
  -13.3473    0.3831   25.7142 C   0  0  0  0  0  0  0  0  0  0  0  0
  -14.0029   -0.7422   25.3706 C   0  0  0  0  0  0  0  0  0  0  0  0
  -13.2956   -1.8753   25.0303 C   0  0  0  0  0  0  0  0  0  0  0  0
  -11.9734   -1.9271   25.1151 C   0  0  0  0  0  0  0  0  0  0  0  0
  -11.2771   -0.7996   25.5321 C   0  0  0  0  0  0  0  0  0  0  0  0
   -9.7637   -0.7706   25.5446 C   0  0  0  0  0  0  0  0  0  0  0  0
   -2.9748   -0.0759   29.8892 F   0  0  0  0  0  0  0  0  0  0  0  0
   -9.0822   -1.7982   25.1430 O   0  0  0  0  0  0  0  0  0  0  0  0
  -13.8906    2.4836   30.4551 C   0  0  0  0  0  0  0  0  0  0  0  0
  -14.2340    3.0840   31.4781 N   0  0  0  0  0  0  0  0  0  0  0  0
  -14.3047    2.6312   32.7311 C   0  0  0  0  0  0  0  0  0  0  0  0
  -13.9867    1.6266   33.1272 C   0  0  0  0  0  0  0  0  0  0  0  0
  -13.7809    1.2408   30.3177 O   0  0  0  0  0  0  0  0  0  0  0  0
  -13.9587    1.1812   34.5459 C   0  0  0  0  0  0  0  0  0  0  0  0
  -14.3092    2.1688   35.4922 C   0  0  0  0  0  0  0  0  0  0  0  0
  6  7  1  0
  4 13  1  0
 13 14  1  0
 13 16  1  0
  5 22  1  0
 21 22  1  0
  2 23  1  0
 22 24  1  6
 21 31  1  0
 30 31  1  0
 18 32  1  0
 31 33  2  0
  9 34  1  0
 34 35  1  0
 35 36  1  0
 36 37  2  3
 34 38  2  0
 37 39  1  0
 39 40  2  0
 21 16  1  1
 24 25  1  0
 25 26  2  0
 26 27  1  0
 27 28  2  0
 28 29  1  0
 29 30  2  0
 30 25  1  0
  1  2  2  0
  2  3  1  0
  3  6  2  0
  6  5  1  0
  5  4  2  0
  4  1  1  0
  7  8  2  0
  8  9  1  0
  9 10  2  0
 10 11  1  0
 11 12  2  0
 12  7  1  0
 14 15  2  0
 15 17  1  0
 17 18  2  0
 18 19  1  0
 19 20  2  0
 20 14  1  0
M  END
$$$$
