No_8672-complexes_sdf/6BKW-FPZ/2024-09-17-14-21-01/
     RDKit          3D

 28 30  0  0  0  0  0  0  0  0999 V2000
   -7.9040    3.9820   27.1177 C   0  0  0  0  0  0  0  0  0  0  0  0
   -8.2057    2.8231   26.8733 C   0  0  0  0  0  0  0  0  0  0  0  0
   -9.2962    2.4021   26.1155 C   0  0  0  0  0  0  0  0  0  0  0  0
   -8.7358    5.0662   26.5917 C   0  0  0  0  0  0  0  0  0  0  0  0
   -9.7618    4.7023   25.7546 C   0  0  0  0  0  0  0  0  0  0  0  0
  -10.0066    3.4105   25.4922 C   0  0  0  0  0  0  0  0  0  0  0  0
   -8.1995    6.4306   26.9121 C   0  0  0  0  0  0  0  0  0  0  0  0
   -8.8402    7.3680   26.4305 F   0  0  0  0  0  0  0  0  0  0  0  0
   -8.4116    6.4986   28.4002 F   0  0  0  0  0  0  0  0  0  0  0  0
   -7.3617    1.6578   27.4964 C   0  0  0  0  0  0  0  0  0  0  0  0
   -6.5139    0.9305   26.7204 C   0  0  0  0  0  0  0  0  0  0  0  0
   -5.4881    0.2785   27.5028 C   0  0  0  0  0  0  0  0  0  0  0  0
   -5.6015   -0.8067   28.0169 C   0  0  0  0  0  0  0  0  0  0  0  0
   -4.6085   -1.3914   28.9629 C   0  0  0  0  0  0  0  0  0  0  0  0
   -3.8686   -0.7859   29.3892 C   0  0  0  0  0  0  0  0  0  0  0  0
   -4.4764    1.1404   28.1581 C   0  0  0  0  0  0  0  0  0  0  0  0
   -3.6140    0.6446   29.0540 C   0  0  0  0  0  0  0  0  0  0  0  0
   -6.9426    6.6046   26.8272 F   0  0  0  0  0  0  0  0  0  0  0  0
   -2.7463   -1.2906   30.4150 C   0  0  0  0  0  0  0  0  0  0  0  0
   -2.5733   -0.6325   31.3884 O   0  0  0  0  0  0  0  0  0  0  0  0
   -2.4967   -2.5354   30.3743 O   0  0  0  0  0  0  0  0  0  0  0  0
  -11.1269    3.1508   24.5895 C   0  0  0  0  0  0  0  0  0  0  0  0
  -10.8263    2.6333   23.4214 C   0  0  0  0  0  0  0  0  0  0  0  0
  -11.7809    2.3856   22.4149 C   0  0  0  0  0  0  0  0  0  0  0  0
  -13.0638    2.8782   22.6101 C   0  0  0  0  0  0  0  0  0  0  0  0
  -12.3950    3.7359   24.7455 C   0  0  0  0  0  0  0  0  0  0  0  0
  -13.3481    3.5907   23.8235 C   0  0  0  0  0  0  0  0  0  0  0  0
   -9.6429    0.7910   25.7081 Cl  0  0  0  0  0  0  0  0  0  0  0  0
  4  7  1  0
  7  8  1  0
  7  9  1  0
  2 10  1  0
 10 11  1  0
 11 12  1  0
  7 18  1  0
 15 19  1  0
 19 20  2  0
 19 21  1  0
  6 22  1  0
  3 28  1  0
 12 13  2  0
 13 14  1  0
 14 15  2  0
 15 17  1  0
 17 16  2  0
 16 12  1  0
  1  2  2  0
  2  3  1  0
  3  6  2  0
  6  5  1  0
  5  4  2  0
  4  1  1  0
 22 23  2  0
 23 24  1  0
 24 25  2  0
 25 27  1  0
 27 26  2  0
 26 22  1  0
M  END
$$$$
