No_8083-complexes_sdf/6BKW-FPZ/2024-09-17-14-21-01/
     RDKit          3D

 19 20  0  0  0  0  0  0  0  0999 V2000
   -7.7129    4.2099   27.0854 C   0  0  0  0  0  0  0  0  0  0  0  0
   -8.9133    4.4736   27.0998 C   0  0  0  0  0  0  0  0  0  0  0  0
   -9.4643    5.5426   27.7628 C   0  0  0  0  0  0  0  0  0  0  0  0
   -6.8373    4.9942   27.9785 C   0  0  0  0  0  0  0  0  0  0  0  0
   -7.3932    6.0303   28.6784 C   0  0  0  0  0  0  0  0  0  0  0  0
   -8.7122    6.3429   28.5485 C   0  0  0  0  0  0  0  0  0  0  0  0
   -9.7912    3.6118   26.1875 C   0  0  0  0  0  0  0  0  0  0  0  0
  -10.0449    4.0843   24.9272 C   0  0  0  0  0  0  0  0  0  0  0  0
  -10.6873    3.3873   23.9365 C   0  0  0  0  0  0  0  0  0  0  0  0
  -11.0662    2.0908   24.2183 C   0  0  0  0  0  0  0  0  0  0  0  0
  -10.1351    2.3126   26.4275 C   0  0  0  0  0  0  0  0  0  0  0  0
  -10.7676    1.5310   25.4791 C   0  0  0  0  0  0  0  0  0  0  0  0
  -10.9886    4.0240   22.6452 C   0  0  0  0  0  0  0  0  0  0  0  0
  -10.5783    3.5678   21.4704 C   0  0  0  0  0  0  0  0  0  0  0  0
   -9.7027    2.5175   21.4033 C   0  0  0  0  0  0  0  0  0  0  0  0
   -9.9063    1.2961   21.3395 C   0  0  0  0  0  0  0  0  0  0  0  0
   -9.4080    0.4077   21.6079 C   0  0  0  0  0  0  0  0  0  0  0  0
   -9.7614   -0.9871   21.4913 C   0  0  0  0  0  0  0  0  0  0  0  0
  -10.9589   -1.1894   20.8388 C   0  0  0  0  0  0  0  0  0  0  0  0
  2  7  1  0
  9 13  1  0
 13 14  1  0
 14 15  2  3
 15 16  1  0
 16 17  2  3
 17 18  1  0
 18 19  2  0
  7  8  2  0
  8  9  1  0
  9 10  2  0
 10 12  1  0
 12 11  2  0
 11  7  1  0
  1  2  2  0
  2  3  1  0
  3  6  2  0
  6  5  1  0
  5  4  2  0
  4  1  1  0
M  END
$$$$
