No_9351-complexes_sdf/6BKW-FPZ/2024-09-17-14-21-01/
     RDKit          3D

 36 40  0  0  0  0  0  0  0  0999 V2000
   -7.2496    3.8871   27.4508 C   0  0  0  0  0  0  0  0  0  0  0  0
   -8.5096    4.0291   27.2770 C   0  0  0  0  0  0  0  0  0  0  0  0
   -9.2669    5.1645   27.5845 C   0  0  0  0  0  0  0  0  0  0  0  0
  -10.6621    5.2321   27.4284 C   0  0  0  0  0  0  0  0  0  0  0  0
   -9.2831    2.8719   26.7564 C   0  0  0  0  0  0  0  0  0  0  0  0
   -8.5831    1.7059   26.4529 C   0  0  0  0  0  0  0  0  0  0  0  0
   -6.5244    2.6560   27.3971 C   0  0  0  0  0  0  0  0  0  0  0  0
   -7.2358    1.5939   26.8620 C   0  0  0  0  0  0  0  0  0  0  0  0
   -8.5380    6.4171   27.8328 C   0  0  0  0  0  0  0  0  0  0  0  0
   -5.2598    2.5608   27.7158 O   0  0  0  0  0  0  0  0  0  0  0  0
   -6.5092    0.3146   26.6959 C   0  0  0  0  0  0  0  0  0  0  0  0
   -5.6203    0.1227   27.4260 O   0  0  0  0  0  0  0  0  0  0  0  0
   -7.0389   -0.5047   25.9793 O   0  0  0  0  0  0  0  0  0  0  0  0
  -11.4383    4.1844   27.8002 C   0  0  0  0  0  0  0  0  0  0  0  0
  -10.8359    2.8512   27.1382 C   0  0  0  0  0  0  0  0  0  0  0  0
  -11.5187    1.6369   27.1596 C   0  0  0  0  0  0  0  0  0  0  0  0
  -11.9019    1.0993   28.2978 C   0  0  0  0  0  0  0  0  0  0  0  0
  -12.3720   -0.2416   28.4410 C   0  0  0  0  0  0  0  0  0  0  0  0
  -12.6824   -0.8492   29.6000 C   0  0  0  0  0  0  0  0  0  0  0  0
  -11.7758    1.0413   25.9796 C   0  0  0  0  0  0  0  0  0  0  0  0
  -12.2975   -0.2829   25.9803 C   0  0  0  0  0  0  0  0  0  0  0  0
  -12.5807   -0.8658   27.2075 C   0  0  0  0  0  0  0  0  0  0  0  0
  -13.3918   -0.4082   30.3998 O   0  0  0  0  0  0  0  0  0  0  0  0
  -11.7620   -1.7776   30.0321 O   0  0  0  0  0  0  0  0  0  0  0  0
  -11.9564   -2.5324   31.1551 C   0  0  0  0  0  0  0  0  0  0  0  0
  -10.7252   -2.9115   31.7392 C   0  0  0  0  0  0  0  0  0  0  0  0
  -10.6256   -2.7698   33.1285 C   0  0  0  0  0  0  0  0  0  0  0  0
  -11.6722   -2.2346   33.8033 C   0  0  0  0  0  0  0  0  0  0  0  0
  -12.8369   -1.8225   33.1878 C   0  0  0  0  0  0  0  0  0  0  0  0
  -13.0793   -2.3497   31.8181 C   0  0  0  0  0  0  0  0  0  0  0  0
   -9.5962   -3.3006   30.9297 C   0  0  0  0  0  0  0  0  0  0  0  0
   -9.1826   -4.3910   30.8602 C   0  0  0  0  0  0  0  0  0  0  0  0
   -8.0199   -4.7795   30.0360 C   0  0  0  0  0  0  0  0  0  0  0  0
   -7.4535   -3.7687   29.2219 C   0  0  0  0  0  0  0  0  0  0  0  0
   -8.0398   -2.4604   29.2468 C   0  0  0  0  0  0  0  0  0  0  0  0
   -9.0240   -2.1904   30.0717 C   0  0  0  0  0  0  0  0  0  0  0  0
  3  9  1  0
  7 10  1  0
  8 11  1  0
 11 12  2  0
 11 13  1  0
 15 16  1  0
 18 19  1  0
 19 23  2  0
 19 24  1  0
 24 25  1  0
 26 31  1  0
 25 26  1  0
 26 27  2  0
 27 28  1  0
 28 29  2  0
 29 30  1  0
 30 25  2  0
 31 32  2  0
 32 33  1  0
 33 34  2  0
 34 35  1  0
 35 36  2  0
 36 31  1  0
 16 17  2  0
 17 18  1  0
 18 22  2  0
 22 21  1  0
 21 20  2  0
 20 16  1  0
  2  3  1  0
  3  4  2  0
  4 14  1  0
 14 15  2  0
 15  5  1  0
  1  2  2  0
  2  5  1  0
  5  6  2  0
  6  8  1  0
  8  7  2  0
  7  1  1  0
M  END
$$$$
