No_9293-complexes_sdf/6BKW-FPZ/2024-09-17-14-21-01/
     RDKit          3D

 20 21  0  0  0  0  0  0  0  0999 V2000
   -7.9040    3.9820   27.1177 C   0  0  0  0  0  0  0  0  0  0  0  0
   -8.2057    2.8231   26.8733 C   0  0  0  0  0  0  0  0  0  0  0  0
   -9.2962    2.4021   26.1155 C   0  0  0  0  0  0  0  0  0  0  0  0
   -8.7358    5.0662   26.5917 C   0  0  0  0  0  0  0  0  0  0  0  0
   -9.7618    4.7023   25.7546 C   0  0  0  0  0  0  0  0  0  0  0  0
  -10.0066    3.4105   25.4922 C   0  0  0  0  0  0  0  0  0  0  0  0
   -8.3936    6.4769   26.8843 C   0  0  0  0  0  0  0  0  0  0  0  0
   -8.0307    6.8601   28.0802 N   0  0  0  0  0  0  0  0  0  0  0  0
   -8.8511    7.3934   26.0853 O   0  0  0  0  0  0  0  0  0  0  0  0
   -7.3370    1.6663   27.4732 C   0  0  2  0  0  0  0  0  0  0  0  0
   -5.7161    1.9465   27.7112 S   0  0  0  0  0  0  0  0  0  0  0  0
   -5.4549    0.3557   28.2398 C   0  0  0  0  0  0  0  0  0  0  0  0
   -7.6823    0.3552   27.5088 C   0  0  0  0  0  0  0  0  0  0  0  0
   -4.1495   -0.0326   28.7170 C   0  0  1  0  0  0  0  0  0  0  0  0
   -6.5831   -0.3983   28.1049 C   0  0  0  0  0  0  0  0  0  0  0  0
   -3.0587    0.2138   28.0633 C   0  0  0  0  0  0  0  0  0  0  0  0
   -4.0652   -0.4810   30.0816 C   0  0  0  0  0  0  0  0  0  0  0  0
   -4.4986    0.1341   31.1060 C   0  0  0  0  0  0  0  0  0  0  0  0
   -4.4060   -0.4230   32.4605 C   0  0  0  0  0  0  0  0  0  0  0  0
   -3.7173   -1.6147   32.5869 C   0  0  0  0  0  0  0  0  0  0  0  0
  4  7  1  0
  7  8  1  0
  7  9  2  0
 10  2  1  6
 10 11  1  0
 11 12  1  0
 10 13  1  0
 12 14  1  0
 12 15  1  0
 13 15  2  0
 14 16  1  1
 14 17  1  0
 17 18  1  0
 18 19  2  3
 19 20  1  0
  1  2  2  0
  2  3  1  0
  3  6  2  0
  6  5  1  0
  5  4  2  0
  4  1  1  0
M  END
$$$$
