No_9102-complexes_sdf/6BKW-FPZ/2024-09-17-14-21-01/
     RDKit          3D

 18 19  0  0  0  0  0  0  0  0999 V2000
   -7.2496    3.8871   27.4508 C   0  0  0  0  0  0  0  0  0  0  0  0
   -7.9379    4.9063   27.8518 C   0  0  0  0  0  0  0  0  0  0  0  0
   -7.5112    6.1898   27.6280 C   0  0  0  0  0  0  0  0  0  0  0  0
   -9.3085    4.6933   28.2930 C   0  0  0  0  0  0  0  0  0  0  0  0
   -7.5786    2.7932   27.1179 C   0  0  0  0  0  0  0  0  0  0  0  0
   -9.8183    3.3904   28.2375 C   0  0  0  0  0  0  0  0  0  0  0  0
   -9.0071    2.4412   27.6218 C   0  0  0  0  0  0  0  0  0  0  0  0
   -9.4526    1.0000   27.4822 C   0  0  0  0  0  0  0  0  0  0  0  0
   -8.4965    0.0082   27.2603 C   0  0  0  0  0  0  0  0  0  0  0  0
   -7.1436    0.3367   27.0467 C   0  0  0  0  0  0  0  0  0  0  0  0
   -6.7637    1.6252   26.9632 C   0  0  0  0  0  0  0  0  0  0  0  0
   -6.2315   -0.7116   26.6056 C   0  0  0  0  0  0  0  0  0  0  0  0
   -6.0890   -1.0326   25.5097 O   0  0  0  0  0  0  0  0  0  0  0  0
   -5.5189   -1.2880   27.6274 O   0  0  0  0  0  0  0  0  0  0  0  0
   -8.2451    7.3245   26.9565 C   0  0  0  0  0  0  0  0  0  0  0  0
   -4.4509   -1.4433   27.7606 C   0  0  0  0  0  0  0  0  0  0  0  0
   -3.4373   -1.4294   27.0621 C   0  0  0  0  0  0  0  0  0  0  0  0
   -3.6439   -0.9511   25.7187 C   0  0  0  0  0  0  0  0  0  0  0  0
  2  3  1  0
 10 12  1  0
 12 13  2  0
 12 14  1  0
  3 15  1  0
 14 16  1  0
 16 17  2  3
 17 18  1  0
  7  8  2  0
  8  9  1  0
  9 10  2  0
 10 11  1  0
 11  5  2  0
  1  2  2  0
  2  4  1  0
  4  6  2  0
  6  7  1  0
  7  5  1  0
  5  1  1  0
M  END
$$$$
