No_9631-complexes_sdf/6BKW-FPZ/2024-09-17-14-21-01/
     RDKit          3D

 19 21  0  0  0  0  0  0  0  0999 V2000
   -7.2496    3.8871   27.4508 C   0  0  0  0  0  0  0  0  0  0  0  0
   -7.9379    4.9063   27.8518 C   0  0  0  0  0  0  0  0  0  0  0  0
   -8.9501    5.3664   27.1340 C   0  0  0  0  0  0  0  0  0  0  0  0
   -6.1760    3.3069   28.2733 C   0  0  0  0  0  0  0  0  0  0  0  0
   -9.4085    4.7897   25.9343 C   0  0  0  0  0  0  0  0  0  0  0  0
   -8.7240    3.6012   25.5494 C   0  0  0  0  0  0  0  0  0  0  0  0
   -7.7568    3.1254   26.3556 C   0  0  0  0  0  0  0  0  0  0  0  0
   -5.5808    2.0395   27.9366 C   0  0  0  0  0  0  0  0  0  0  0  0
   -4.4418    1.6123   28.6001 C   0  0  0  0  0  0  0  0  0  0  0  0
   -4.1172    0.2277   28.6633 C   0  0  0  0  0  0  0  0  0  0  0  0
   -4.8798   -0.6294   27.8434 C   0  0  0  0  0  0  0  0  0  0  0  0
   -5.9700   -0.1959   27.1550 C   0  0  0  0  0  0  0  0  0  0  0  0
   -6.3885    1.1053   27.2692 C   0  0  0  0  0  0  0  0  0  0  0  0
   -7.3529    1.7474   26.1963 N   0  0  0  0  0  0  0  0  0  0  0  0
   -8.0086    0.8556   25.3497 C   0  0  0  0  0  0  0  0  0  0  0  0
   -8.9364    0.1101   25.9067 C   0  0  0  0  0  0  0  0  0  0  0  0
   -9.4289    0.1575   27.1699 C   0  0  0  0  0  0  0  0  0  0  0  0
  -10.4654   -0.6211   27.6923 C   0  0  0  0  0  0  0  0  0  0  0  0
  -11.0004   -0.4351   28.9764 C   0  0  0  0  0  0  0  0  0  0  0  0
  1  4  1  0
  7 14  1  0
 13 14  1  0
 14 15  1  0
 15 16  1  0
 16 17  2  3
 17 18  1  0
 18 19  2  0
  4  8  1  0
  8  9  2  0
  9 10  1  0
 10 11  2  0
 11 12  1  0
 12 13  2  0
 13  8  1  0
  1  2  2  0
  2  3  1  0
  3  5  2  0
  5  6  1  0
  6  7  2  0
  7  1  1  0
M  END
$$$$
