No_9716-complexes_sdf/6BKW-FPZ/2024-09-17-14-21-01/
     RDKit          3D

 28 31  0  0  0  0  0  0  0  0999 V2000
   -7.2496    3.8871   27.4508 C   0  0  0  0  0  0  0  0  0  0  0  0
   -8.5096    4.0291   27.2770 C   0  0  0  0  0  0  0  0  0  0  0  0
   -9.3502    2.8685   26.8763 C   0  0  0  0  0  0  0  0  0  0  0  0
   -6.6288    2.5513   27.4938 C   0  0  0  0  0  0  0  0  0  0  0  0
   -7.4365    1.4714   27.2032 C   0  0  0  0  0  0  0  0  0  0  0  0
   -8.7772    1.6579   26.9338 C   0  0  0  0  0  0  0  0  0  0  0  0
   -8.9255    5.4785   27.2355 C   0  0  0  0  0  0  0  0  0  0  0  0
  -10.2197    5.8019   27.0657 N   0  0  0  0  0  0  0  0  0  0  0  0
   -8.0862    6.4006   27.3142 O   0  0  0  0  0  0  0  0  0  0  0  0
   -6.8350    0.1468   27.2335 C   0  0  0  0  0  0  0  0  0  0  0  0
   -5.6507   -0.0819   27.8546 C   0  0  0  0  0  0  0  0  0  0  0  0
   -5.0331   -1.3677   27.9020 C   0  0  0  0  0  0  0  0  0  0  0  0
   -5.7111   -2.3487   27.1796 C   0  0  0  0  0  0  0  0  0  0  0  0
   -7.2449   -1.0498   26.6726 C   0  0  0  0  0  0  0  0  0  0  0  0
   -8.6006   -0.7944   25.9868 C   0  0  0  0  0  0  0  0  0  0  0  0
   -6.7449   -2.1949   26.6094 C   0  0  0  0  0  0  0  0  0  0  0  0
   -9.3554    0.5116   26.2543 C   0  0  0  0  0  0  0  0  0  0  0  0
   -3.7250   -1.4788   28.6651 C   0  0  0  0  0  0  0  0  0  0  0  0
   -2.7126   -1.5480   27.9949 F   0  0  0  0  0  0  0  0  0  0  0  0
   -3.5938   -0.3501   29.4854 F   0  0  0  0  0  0  0  0  0  0  0  0
   -3.8642   -2.4809   29.5623 F   0  0  0  0  0  0  0  0  0  0  0  0
   -9.2444   -1.7031   25.2168 C   0  0  0  0  0  0  0  0  0  0  0  0
   -9.1090   -1.5789   23.9382 C   0  0  0  0  0  0  0  0  0  0  0  0
   -9.3473   -2.5261   23.0206 C   0  0  0  0  0  0  0  0  0  0  0  0
   -9.9372   -2.7265   25.7439 C   0  0  0  0  0  0  0  0  0  0  0  0
  -10.3969   -3.7697   24.8589 C   0  0  0  0  0  0  0  0  0  0  0  0
  -10.1361   -3.6065   23.4915 C   0  0  0  0  0  0  0  0  0  0  0  0
  -10.5834   -4.5370   22.6777 F   0  0  0  0  0  0  0  0  0  0  0  0
  2  7  1  0
  7  8  1  0
  7  9  2  0
 12 18  1  0
 18 19  1  0
 18 20  1  0
 18 21  1  0
 15 22  1  0
 27 28  1  0
 10 11  2  0
 11 12  1  0
 12 13  2  0
 13 16  1  0
 16 14  2  0
  1  2  2  0
  2  3  1  0
  3  6  2  0
  5  4  2  0
  4  1  1  0
  5  6  1  0
  6 17  1  0
 17 15  2  0
 15 14  1  0
 14 10  1  0
 10  5  1  0
 22 23  2  0
 23 24  1  0
 24 27  2  0
 27 26  1  0
 26 25  2  0
 25 22  1  0
M  END
$$$$
