No_9561-complexes_sdf/6BKW-FPZ/2024-09-17-14-21-01/
     RDKit          3D

 14 15  0  0  0  0  0  0  0  0999 V2000
   -7.7129    4.2099   27.0854 C   0  0  0  0  0  0  0  0  0  0  0  0
   -7.7814    5.1722   27.8972 C   0  0  0  0  0  0  0  0  0  0  0  0
   -8.8255    3.2789   27.1191 C   0  0  0  0  0  0  0  0  0  0  0  0
   -9.9209    3.4734   27.9101 C   0  0  0  0  0  0  0  0  0  0  0  0
  -10.9752    2.5069   28.0201 C   0  0  0  0  0  0  0  0  0  0  0  0
   -8.9991    5.6269   28.5996 C   0  0  0  0  0  0  0  0  0  0  0  0
   -9.9928    4.6433   28.6536 C   0  0  0  0  0  0  0  0  0  0  0  0
  -11.6596    2.2403   26.9860 C   0  0  0  0  0  0  0  0  0  0  0  0
  -12.6029    1.3614   27.0618 C   0  0  0  0  0  0  0  0  0  0  0  0
  -13.3351    0.9550   25.9566 C   0  0  0  0  0  0  0  0  0  0  0  0
   -8.7378    2.0622   26.2973 C   0  0  0  0  0  0  0  0  0  0  0  0
  -12.9781    1.5184   24.7682 C   0  0  0  0  0  0  0  0  0  0  0  0
  -11.9319    2.4269   24.6348 C   0  0  0  0  0  0  0  0  0  0  0  0
  -11.2228    2.7849   25.8195 C   0  0  0  0  0  0  0  0  0  0  0  0
  4  5  1  0
  5  8  1  0
  3 11  1  0
  1  2  2  0
  2  6  1  0
  6  7  2  0
  7  4  1  0
  4  3  2  0
  3  1  1  0
  8  9  2  0
  9 10  1  0
 10 12  2  0
 12 13  1  0
 13 14  2  0
 14  8  1  0
M  END
$$$$
