No_920-complexes_sdf/6BKW-FPZ/2024-09-17-14-21-01/
     RDKit          3D

 15 16  0  0  0  0  0  0  0  0999 V2000
   -7.9040    3.9820   27.1177 C   0  0  0  0  0  0  0  0  0  0  0  0
   -7.8663    4.8694   27.9238 C   0  0  0  0  0  0  0  0  0  0  0  0
   -9.0491    3.8523   26.2542 C   0  0  0  0  0  0  0  0  0  0  0  0
   -8.7661    5.9491   27.9690 C   0  0  0  0  0  0  0  0  0  0  0  0
   -9.1798    2.6731   25.4786 C   0  0  0  0  0  0  0  0  0  0  0  0
   -9.8964    5.8854   27.1460 C   0  0  0  0  0  0  0  0  0  0  0  0
   -9.9958    4.8034   26.3470 C   0  0  0  0  0  0  0  0  0  0  0  0
  -10.0250    2.6919   24.3447 C   0  0  0  0  0  0  0  0  0  0  0  0
  -10.1429    1.5791   23.5538 C   0  0  0  0  0  0  0  0  0  0  0  0
   -9.4067    0.6892   23.7026 C   0  0  0  0  0  0  0  0  0  0  0  0
   -8.3673    1.5069   25.5010 C   0  0  0  0  0  0  0  0  0  0  0  0
   -8.4237    0.5096   24.6930 C   0  0  0  0  0  0  0  0  0  0  0  0
   -7.4399   -0.8541   24.8650 Cl  0  0  0  0  0  0  0  0  0  0  0  0
   -6.7419    5.1119   28.7478 O   0  0  0  0  0  0  0  0  0  0  0  0
  -11.2210    1.7364   22.1983 Cl  0  0  0  0  0  0  0  0  0  0  0  0
  3  5  1  0
 12 13  1  0
  2 14  1  0
  9 15  1  0
  1  2  2  0
  2  4  1  0
  4  6  2  0
  6  7  1  0
  7  3  2  0
  3  1  1  0
  5  8  2  0
  8  9  1  0
  9 10  2  0
 10 12  1  0
 12 11  2  0
 11  5  1  0
M  END
$$$$
