No_9950-complexes_sdf/6BKW-FPZ/2024-09-17-14-21-01/
     RDKit          3D

 17 18  0  0  0  0  0  0  0  0999 V2000
   -7.2496    3.8871   27.4508 C   0  0  0  0  0  0  0  0  0  0  0  0
   -8.5096    4.0291   27.2770 C   0  0  0  0  0  0  0  0  0  0  0  0
   -9.3502    2.8685   26.8763 C   0  0  0  0  0  0  0  0  0  0  0  0
   -6.6288    2.5513   27.4938 C   0  0  0  0  0  0  0  0  0  0  0  0
   -7.4365    1.4714   27.2032 C   0  0  0  0  0  0  0  0  0  0  0  0
   -8.7772    1.6579   26.9338 C   0  0  0  0  0  0  0  0  0  0  0  0
   -9.2952    5.2561   27.2424 C   0  0  0  0  0  0  0  0  0  0  0  0
   -9.3066    5.8203   28.0710 F   0  0  0  0  0  0  0  0  0  0  0  0
  -10.5494    4.9579   26.6541 F   0  0  0  0  0  0  0  0  0  0  0  0
   -8.7069    6.0415   26.1295 F   0  0  0  0  0  0  0  0  0  0  0  0
   -5.0132    2.4346   27.9293 Cl  0  0  0  0  0  0  0  0  0  0  0  0
   -6.8115    0.1416   27.2046 C   0  0  0  0  0  0  0  0  0  0  0  0
   -5.9557   -0.3147   27.6911 C   0  0  0  0  0  0  0  0  0  0  0  0
   -5.4326   -1.6620   27.6617 C   0  0  0  0  0  0  0  0  0  0  0  0
   -6.2245   -2.5175   26.8854 C   0  0  0  0  0  0  0  0  0  0  0  0
   -7.5090   -0.9570   26.5039 C   0  0  0  0  0  0  0  0  0  0  0  0
   -7.2037   -1.9806   26.3626 C   0  0  0  0  0  0  0  0  0  0  0  0
  2  7  1  0
  7  8  1  0
  7  9  1  0
  7 10  1  0
  4 11  1  0
  5 12  1  0
 12 13  2  0
 13 14  1  0
 14 15  2  0
 15 17  1  0
 17 16  2  0
 16 12  1  0
  1  2  2  0
  2  3  1  0
  3  6  2  0
  6  5  1  0
  5  4  2  0
  4  1  1  0
M  END
$$$$
