No_9451-complexes_sdf/6BKW-FPZ/2024-09-17-14-21-01/
     RDKit          3D

 22 24  0  0  0  0  0  0  0  0999 V2000
   -7.9040    3.9820   27.1177 C   0  0  0  0  0  0  0  0  0  0  0  0
   -8.2057    2.8231   26.8733 C   0  0  0  0  0  0  0  0  0  0  0  0
   -8.7695    5.0740   26.7916 C   0  0  0  0  0  0  0  0  0  0  0  0
   -8.4337    6.4678   27.0913 C   0  0  0  0  0  0  0  0  0  0  0  0
   -9.3742    2.4311   26.2346 C   0  0  0  0  0  0  0  0  0  0  0  0
  -10.2395    3.4267   25.8887 C   0  0  0  0  0  0  0  0  0  0  0  0
   -9.9567    4.7548   26.1374 C   0  0  0  0  0  0  0  0  0  0  0  0
   -7.9449    7.5014   26.9590 N   0  0  0  0  0  0  0  0  0  0  0  0
   -7.4536    1.5358   27.2327 C   0  0  0  0  0  0  0  0  0  0  0  0
   -6.1351    1.7877   27.7963 C   0  0  0  0  0  0  0  0  0  0  0  0
   -5.3113    0.6645   28.1697 C   0  0  0  0  0  0  0  0  0  0  0  0
   -5.8229   -0.5974   28.0050 C   0  0  0  0  0  0  0  0  0  0  0  0
   -7.7083    0.2272   27.1996 C   0  0  0  0  0  0  0  0  0  0  0  0
   -7.0420   -0.7872   27.5802 C   0  0  0  0  0  0  0  0  0  0  0  0
   -4.0346    0.9823   28.6321 N   0  0  0  0  0  0  0  0  0  0  0  0
   -3.3317    0.0393   29.3578 C   0  0  0  0  0  0  0  0  0  0  0  0
   -3.3978   -1.1632   29.2536 C   0  0  0  0  0  0  0  0  0  0  0  0
   -4.8375   -1.6091   28.7679 C   0  0  0  0  0  0  0  0  0  0  0  0
   -2.6659   -2.1998   29.8762 C   0  0  0  0  0  0  0  0  0  0  0  0
   -1.6260   -2.1695   29.8489 N   0  0  0  0  0  0  0  0  0  0  0  0
   -3.2143   -3.0142   30.7194 O   0  0  0  0  0  0  0  0  0  0  0  0
   -0.7898   -1.2701   28.9832 C   0  0  0  0  0  0  0  0  0  0  0  0
  3  4  1  0
  4  8  3  0
  2  9  1  0
 17 19  1  0
 19 20  1  0
 19 21  2  0
 20 22  1  0
 12 18  2  0
 18 17  1  0
 17 16  2  0
 16 15  1  0
 15 11  2  0
  1  2  2  0
  2  5  1  0
  5  6  2  0
  6  7  1  0
  7  3  2  0
  3  1  1  0
  9 10  2  0
 10 11  1  0
 11 12  1  0
 12 14  1  0
 14 13  2  0
 13  9  1  0
M  END
$$$$
