No_9342-complexes_sdf/6BKW-FPZ/2024-09-17-14-21-01/
     RDKit          3D

 16 17  0  0  0  0  0  0  0  0999 V2000
   -7.9040    3.9820   27.1177 C   0  0  0  0  0  0  0  0  0  0  0  0
   -9.0711    4.3164   27.0630 C   0  0  0  0  0  0  0  0  0  0  0  0
   -9.8698    3.9665   25.9495 C   0  0  0  0  0  0  0  0  0  0  0  0
   -7.0332    4.5030   28.2025 C   0  0  0  0  0  0  0  0  0  0  0  0
  -10.9909    4.7237   25.5958 C   0  0  0  0  0  0  0  0  0  0  0  0
   -7.4989    5.5573   28.9524 C   0  0  0  0  0  0  0  0  0  0  0  0
  -11.7350    4.2316   24.5284 C   0  0  0  0  0  0  0  0  0  0  0  0
  -11.2912    3.1970   23.7185 C   0  0  0  0  0  0  0  0  0  0  0  0
  -10.1586    2.5464   24.0389 C   0  0  0  0  0  0  0  0  0  0  0  0
   -9.3966    2.9844   25.1500 C   0  0  0  0  0  0  0  0  0  0  0  0
   -9.4387    5.4350   27.9141 C   0  0  0  0  0  0  0  0  0  0  0  0
   -8.6845    6.0138   28.8196 C   0  0  0  0  0  0  0  0  0  0  0  0
   -9.6692    1.3930   23.2216 C   0  0  0  0  0  0  0  0  0  0  0  0
  -10.4033    0.4424   22.8528 Cl  0  0  0  0  0  0  0  0  0  0  0  0
   -8.3229    1.4028   23.0339 O   0  0  0  0  0  0  0  0  0  0  0  0
   -5.7624    4.0235   28.2566 F   0  0  0  0  0  0  0  0  0  0  0  0
  9 13  1  0
 13 14  1  0
 13 15  2  0
  4 16  1  0
  3  2  1  0
  1  2  2  0
  2 11  1  0
 11 12  2  0
 12  6  1  0
  6  4  2  0
  4  1  1  0
  3  5  2  0
  5  7  1  0
  7  8  2  0
  8  9  1  0
  9 10  2  0
 10  3  1  0
M  END
$$$$
