No_9970-complexes_sdf/6BKW-FPZ/2024-09-17-14-21-01/
     RDKit          3D

 34 38  0  0  0  0  0  0  0  0999 V2000
   -7.9040    3.9820   27.1177 C   0  0  0  0  0  0  0  0  0  0  0  0
   -7.8663    4.8694   27.9238 C   0  0  0  0  0  0  0  0  0  0  0  0
   -9.0491    3.8523   26.2542 C   0  0  0  0  0  0  0  0  0  0  0  0
   -8.7661    5.9491   27.9690 C   0  0  0  0  0  0  0  0  0  0  0  0
   -9.9279    4.8544   26.1938 C   0  0  0  0  0  0  0  0  0  0  0  0
   -9.8044    5.9413   27.0782 C   0  0  0  0  0  0  0  0  0  0  0  0
   -7.0257    2.8867   27.1969 N   0  0  0  0  0  0  0  0  0  0  0  0
   -7.2963    1.6007   26.7912 C   0  0  0  0  0  0  0  0  0  0  0  0
   -6.3154    0.6412   27.1692 C   0  0  0  0  0  0  0  0  0  0  0  0
   -5.2624    1.3528   27.8432 C   0  0  0  0  0  0  0  0  0  0  0  0
   -5.7699    2.8643   27.8580 C   0  0  0  0  0  0  0  0  0  0  0  0
   -4.0437    1.0266   28.3767 C   0  0  0  0  0  0  0  0  0  0  0  0
   -3.9253   -0.3110   28.7883 C   0  0  0  0  0  0  0  0  0  0  0  0
   -4.5978   -0.9532   29.7003 C   0  0  0  0  0  0  0  0  0  0  0  0
   -4.6263   -1.8789   30.2873 C   0  0  0  0  0  0  0  0  0  0  0  0
   -3.4930   -2.7693   29.9534 C   0  0  0  0  0  0  0  0  0  0  0  0
   -2.6690   -1.0012   28.4794 C   0  0  0  0  0  0  0  0  0  0  0  0
   -2.5173   -2.2326   29.1159 C   0  0  0  0  0  0  0  0  0  0  0  0
   -5.6180   -2.4867   31.2882 C   0  0  0  0  0  0  0  0  0  0  0  0
   -5.6091   -1.9909   32.5446 C   0  0  0  0  0  0  0  0  0  0  0  0
   -6.6748   -2.2036   33.4614 C   0  0  0  0  0  0  0  0  0  0  0  0
   -7.8557   -2.8180   32.9651 C   0  0  0  0  0  0  0  0  0  0  0  0
   -7.8944   -3.2521   31.6328 C   0  0  0  0  0  0  0  0  0  0  0  0
   -6.8075   -2.9907   30.7590 C   0  0  0  0  0  0  0  0  0  0  0  0
   -4.4072   -1.3105   33.1210 C   0  0  0  0  0  0  0  0  0  0  0  0
   -3.7334   -0.3871   32.6171 C   0  0  0  0  0  0  0  0  0  0  0  0
   -2.4942    0.1173   33.2342 C   0  0  0  0  0  0  0  0  0  0  0  0
   -2.1264   -0.3606   34.4503 C   0  0  0  0  0  0  0  0  0  0  0  0
   -3.9763   -1.8491   34.4465 C   0  0  0  0  0  0  0  0  0  0  0  0
   -2.8825   -1.3451   35.0698 C   0  0  0  0  0  0  0  0  0  0  0  0
   -6.8800   -3.3393   29.5339 F   0  0  0  0  0  0  0  0  0  0  0  0
   -1.6882   -0.4721   27.5477 C   0  0  0  0  0  0  0  0  0  0  0  0
   -0.7176   -0.9998   27.2248 N   0  0  0  0  0  0  0  0  0  0  0  0
   -1.9899    0.7313   26.8141 N   0  0  0  0  0  0  0  0  0  0  0  0
  1  7  1  0
  7  8  1  0
  8  9  2  0
  9 10  1  0
  7 11  1  0
 10 11  1  0
 10 12  1  0
 12 13  1  0
 15 19  1  0
 20 25  1  0
 24 31  1  0
 17 32  1  0
 32 33  2  0
 32 34  1  0
  1  2  2  0
  2  4  1  0
  4  6  2  0
  6  5  1  0
  5  3  2  0
  3  1  1  0
 25 26  2  0
 26 27  1  0
 27 28  2  0
 28 30  1  0
 30 29  2  0
 29 25  1  0
 13 14  2  0
 14 15  1  0
 15 16  2  0
 16 18  1  0
 18 17  2  0
 17 13  1  0
 19 20  1  0
 20 21  2  0
 21 22  1  0
 22 23  2  0
 23 24  1  0
 24 19  2  0
M  END
$$$$
