No_9151-complexes_sdf/6BKW-FPZ/2024-09-17-14-21-01/
     RDKit          3D

 40 44  0  0  0  0  0  0  0  0999 V2000
   -7.9040    3.9820   27.1177 C   0  0  0  0  0  0  0  0  0  0  0  0
   -7.8663    4.8694   27.9238 C   0  0  0  0  0  0  0  0  0  0  0  0
   -7.4698    2.6989   27.4277 C   0  0  0  0  0  0  0  0  0  0  0  0
   -7.9683    1.5964   26.8266 C   0  0  1  0  0  0  0  0  0  0  0  0
   -8.9447    1.7923   25.8533 C   0  0  0  0  0  0  0  0  0  0  0  0
   -9.4405    2.9988   25.5757 C   0  0  1  0  0  0  0  0  0  0  0  0
   -8.9424    4.1117   26.2388 C   0  0  0  0  0  0  0  0  0  0  0  0
   -8.0525    6.0889   27.7934 N   0  0  0  0  0  0  0  0  0  0  0  0
   -7.2688    0.3466   27.2251 C   0  0  0  0  0  0  0  0  0  0  0  0
   -5.9857    0.2711   27.6092 C   0  0  0  0  0  0  0  0  0  0  0  0
   -5.3630   -0.8628   27.9292 C   0  0  0  0  0  0  0  0  0  0  0  0
   -6.0946   -2.0303   27.9232 C   0  0  0  0  0  0  0  0  0  0  0  0
   -7.8317   -0.9441   27.2206 C   0  0  0  0  0  0  0  0  0  0  0  0
   -7.3498   -2.0357   27.5776 C   0  0  0  0  0  0  0  0  0  0  0  0
   -9.4671    5.3943   25.9524 C   0  0  0  0  0  0  0  0  0  0  0  0
   -8.9330    6.4597   26.7905 C   0  0  0  0  0  0  0  0  0  0  0  0
   -3.9090   -0.7801   28.4077 C   0  0  1  0  0  0  0  0  0  0  0  0
   -3.6933   -0.4903   30.0219 Cl  0  0  0  0  0  0  0  0  0  0  0  0
   -3.1746   -1.9759   28.0654 N   0  0  0  0  0  0  0  0  0  0  0  0
   -3.1927    0.2739   27.4650 C   0  0  0  0  0  0  0  0  0  0  0  0
   -2.9523    1.3310   28.0759 F   0  0  0  0  0  0  0  0  0  0  0  0
   -3.7568    0.5221   26.3510 F   0  0  0  0  0  0  0  0  0  0  0  0
   -1.8650   -0.1382   27.2141 F   0  0  0  0  0  0  0  0  0  0  0  0
   -2.9103   -2.5604   27.0425 C   0  0  0  0  0  0  0  0  0  0  0  0
   -2.6707   -2.7648   29.2725 C   0  0  0  0  0  0  0  0  0  0  0  0
  -10.3920    3.1124   24.4635 C   0  0  0  0  0  0  0  0  0  0  0  0
  -10.3540    2.6519   23.4485 O   0  0  0  0  0  0  0  0  0  0  0  0
  -11.5165    3.9418   24.7705 N   0  0  0  0  0  0  0  0  0  0  0  0
  -12.5970    4.1093   23.8444 C   0  0  0  0  0  0  0  0  0  0  0  0
   -3.1178   -3.9088   26.8258 C   0  0  0  0  0  0  0  0  0  0  0  0
   -2.6125   -4.6305   27.7462 C   0  0  0  0  0  0  0  0  0  0  0  0
   -2.0798   -3.5840   29.1890 C   0  0  0  0  0  0  0  0  0  0  0  0
   -8.0943   -3.3035   27.5876 C   0  0  0  0  0  0  0  0  0  0  0  0
   -7.9669   -4.2395   27.9410 O   0  0  0  0  0  0  0  0  0  0  0  0
   -9.1933   -3.1919   26.6353 O   0  0  0  0  0  0  0  0  0  0  0  0
  -13.8302    4.2438   24.4643 C   0  0  0  0  0  0  0  0  0  0  0  0
  -14.0049    4.1823   25.7982 C   0  0  0  0  0  0  0  0  0  0  0  0
  -12.8586    4.0520   26.6312 C   0  0  0  0  0  0  0  0  0  0  0  0
  -11.8337    3.8684   26.1796 C   0  0  0  0  0  0  0  0  0  0  0  0
  -14.9756    4.5241   23.5460 C   0  0  0  0  0  0  0  0  0  0  0  0
  1  3  1  0
  3  4  1  0
  4  5  1  0
  5  6  1  0
  6  7  1  0
  4  9  1  6
 11 17  1  0
 17 18  1  1
 17 19  1  0
 17 20  1  0
 20 21  1  0
 20 22  1  0
 20 23  1  0
 19 24  1  0
 19 25  1  0
  6 26  1  6
 26 27  2  0
 26 28  1  0
 28 29  1  0
 24 30  1  0
 31 32  1  0
 14 33  1  0
 33 34  2  0
 33 35  1  0
 29 36  1  0
 36 37  1  0
 37 38  1  0
 28 39  1  0
 36 40  1  0
 38 39  1  0
 30 31  1  0
 32 25  1  0
  1  2  2  0
  2  8  1  0
  8 16  2  0
 16 15  1  0
 15  7  2  0
  7  1  1  0
  9 10  2  0
 10 11  1  0
 11 12  2  0
 12 14  1  0
 14 13  2  0
 13  9  1  0
M  END
$$$$
