No_9669-complexes_sdf/6BKW-FPZ/2024-09-17-14-21-01/
     RDKit          3D

 16 18  0  0  0  0  0  0  0  0999 V2000
   -7.9040    3.9820   27.1177 C   0  0  0  0  0  0  0  0  0  0  0  0
   -7.8663    4.8694   27.9238 C   0  0  0  0  0  0  0  0  0  0  0  0
   -7.4547    2.7080   27.4594 C   0  0  0  0  0  0  0  0  0  0  0  0
   -8.7044    6.0412   27.8492 C   0  0  0  0  0  0  0  0  0  0  0  0
   -7.9501    1.5743   26.8848 C   0  0  1  0  0  0  0  0  0  0  0  0
   -8.8773    1.7289   25.8707 C   0  0  0  0  0  0  0  0  0  0  0  0
   -9.3953    2.9512   25.5360 C   0  0  0  0  0  0  0  0  0  0  0  0
   -8.9468    4.1059   26.2110 C   0  0  0  0  0  0  0  0  0  0  0  0
   -9.5724    5.3382   26.1918 C   0  0  0  0  0  0  0  0  0  0  0  0
   -9.3757    6.3661   26.9182 N   0  0  0  0  0  0  0  0  0  0  0  0
   -7.3360    0.2584   27.1331 C   0  0  0  0  0  0  0  0  0  0  0  0
   -8.0974   -0.8300   27.3493 C   0  0  0  0  0  0  0  0  0  0  0  0
   -7.6457   -1.8645   28.0551 C   0  0  0  0  0  0  0  0  0  0  0  0
   -6.2957   -1.8935   28.4739 C   0  0  0  0  0  0  0  0  0  0  0  0
   -5.4810   -0.7922   28.3364 C   0  0  0  0  0  0  0  0  0  0  0  0
   -6.0287    0.3516   27.7615 C   0  0  0  0  0  0  0  0  0  0  0  0
  1  3  1  0
  3  5  1  0
  5  6  1  0
  6  7  1  0
  7  8  1  0
  5 11  1  6
 11 12  2  0
 12 13  1  0
 13 14  2  0
 14 15  1  0
 15 16  2  0
 16 11  1  0
  1  2  2  0
  2  4  1  0
  4 10  2  0
 10  9  1  0
  9  8  2  0
  8  1  1  0
M  END
$$$$
