No_9050-complexes_sdf/6BKW-FPZ/2024-09-17-14-21-01/
     RDKit          3D

 32 35  0  0  0  0  0  0  0  0999 V2000
   -7.9040    3.9820   27.1177 C   0  0  0  0  0  0  0  0  0  0  0  0
   -7.8663    4.8694   27.9238 C   0  0  0  0  0  0  0  0  0  0  0  0
   -7.4698    2.6989   27.4277 C   0  0  0  0  0  0  0  0  0  0  0  0
   -7.9683    1.5964   26.8266 C   0  0  1  0  0  0  0  0  0  0  0  0
   -8.9447    1.7923   25.8533 C   0  0  0  0  0  0  0  0  0  0  0  0
   -9.4405    2.9988   25.5757 C   0  0  0  0  0  0  0  0  0  0  0  0
   -8.9424    4.1117   26.2388 C   0  0  0  0  0  0  0  0  0  0  0  0
   -8.0525    6.0889   27.7934 N   0  0  0  0  0  0  0  0  0  0  0  0
   -7.4419    0.2917   27.0869 C   0  0  0  0  0  0  0  0  0  0  0  0
   -6.1735    0.1397   27.6280 C   0  0  0  0  0  0  0  0  0  0  0  0
   -5.5845   -1.0393   27.8854 C   0  0  0  0  0  0  0  0  0  0  0  0
   -6.3557   -2.1657   27.6847 C   0  0  0  0  0  0  0  0  0  0  0  0
   -7.9970   -0.9548   26.9605 C   0  0  0  0  0  0  0  0  0  0  0  0
   -7.5755   -2.1033   27.2468 C   0  0  0  0  0  0  0  0  0  0  0  0
   -9.4531    5.4043   25.9543 C   0  0  0  0  0  0  0  0  0  0  0  0
   -8.9255    6.4629   26.7925 C   0  0  0  0  0  0  0  0  0  0  0  0
   -4.2008   -1.0483   28.5062 C   0  0  0  0  0  0  0  0  0  0  0  0
   -3.3718    0.0515   28.2492 C   0  0  0  0  0  0  0  0  0  0  0  0
   -2.9059    0.2389   27.2492 C   0  0  0  0  0  0  0  0  0  0  0  0
   -2.6374   -0.6026   26.2181 C   0  0  0  0  0  0  0  0  0  0  0  0
   -3.7396   -2.0741   29.3002 C   0  0  0  0  0  0  0  0  0  0  0  0
   -3.6606   -1.7215   30.5696 C   0  0  0  0  0  0  0  0  0  0  0  0
   -2.9793   -2.5062   31.5174 C   0  0  0  0  0  0  0  0  0  0  0  0
   -4.1389   -0.4465   31.1750 C   0  0  0  0  0  0  0  0  0  0  0  0
   -4.0144   -0.1785   32.5808 C   0  0  0  0  0  0  0  0  0  0  0  0
   -2.7653   -2.2051   32.8838 C   0  0  0  0  0  0  0  0  0  0  0  0
   -3.2961   -0.9886   33.3935 C   0  0  0  0  0  0  0  0  0  0  0  0
   -3.0613   -0.5417   35.0322 Cl  0  0  0  0  0  0  0  0  0  0  0  0
   -2.4836    1.7056   26.7980 C   0  0  0  0  0  0  0  0  0  0  0  0
   -8.3772   -3.3034   27.0625 C   0  0  0  0  0  0  0  0  0  0  0  0
   -9.4343   -3.3260   26.7507 N   0  0  0  0  0  0  0  0  0  0  0  0
  -10.2926   -4.3250   26.5526 C   0  0  0  0  0  0  0  0  0  0  0  0
  1  3  1  0
  3  4  1  0
  4  5  1  0
  5  6  1  0
  6  7  1  0
  4  9  1  6
 11 17  1  0
 17 18  1  0
 18 19  2  3
 19 20  1  0
 17 21  1  0
 21 22  1  0
 27 28  1  0
 19 29  1  0
 14 30  1  0
 30 31  2  3
 31 32  1  0
  1  2  2  0
  2  8  1  0
  8 16  2  0
 16 15  1  0
 15  7  2  0
  7  1  1  0
 22 23  2  0
 23 26  1  0
 26 27  2  0
 27 25  1  0
 25 24  2  0
 24 22  1  0
  9 10  2  0
 10 11  1  0
 11 12  2  0
 12 14  1  0
 14 13  2  0
 13  9  1  0
M  END
$$$$
