No_9579-complexes_sdf/6BKW-FPZ/2024-09-17-14-21-01/
     RDKit          3D

 15 16  0  0  0  0  0  0  0  0999 V2000
   -7.7129    4.2099   27.0854 C   0  0  0  0  0  0  0  0  0  0  0  0
   -8.9133    4.4736   27.0998 C   0  0  0  0  0  0  0  0  0  0  0  0
   -9.4643    5.5426   27.7628 C   0  0  0  0  0  0  0  0  0  0  0  0
   -6.8373    4.9942   27.9785 C   0  0  0  0  0  0  0  0  0  0  0  0
   -7.3932    6.0303   28.6784 C   0  0  0  0  0  0  0  0  0  0  0  0
   -8.7122    6.3429   28.5485 C   0  0  0  0  0  0  0  0  0  0  0  0
   -9.6269    3.4988   26.1115 C   0  0  0  0  0  0  0  0  0  0  0  0
   -9.5719    2.2312   26.2079 C   0  0  0  0  0  0  0  0  0  0  0  0
  -10.1912    1.3459   25.2873 C   0  0  0  0  0  0  0  0  0  0  0  0
  -10.9084    1.9553   24.2268 C   0  0  0  0  0  0  0  0  0  0  0  0
  -10.9926    3.3433   24.1313 C   0  0  0  0  0  0  0  0  0  0  0  0
  -10.3873    4.1857   25.0724 C   0  0  0  0  0  0  0  0  0  0  0  0
  -11.8008    3.9746   23.0643 C   0  0  0  0  0  0  0  0  0  0  0  0
  -12.6036    4.8639   23.2167 C   0  0  0  0  0  0  0  0  0  0  0  0
  -13.4922    5.3336   22.1745 C   0  0  0  0  0  0  0  0  0  0  0  0
  2  7  1  0
 11 13  1  0
 13 14  2  3
 14 15  1  0
  1  2  2  0
  2  3  1  0
  3  6  2  0
  6  5  1  0
  5  4  2  0
  4  1  1  0
  7  8  2  0
  8  9  1  0
  9 10  2  0
 10 11  1  0
 11 12  2  0
 12  7  1  0
M  END
$$$$
