No_9602-complexes_sdf/6BKW-FPZ/2024-09-17-14-21-01/
     RDKit          3D

 18 20  0  0  0  0  0  0  0  0999 V2000
   -7.7129    4.2099   27.0854 C   0  0  0  0  0  0  0  0  0  0  0  0
   -8.2112    3.0637   26.9225 C   0  0  0  0  0  0  0  0  0  0  0  0
   -9.5629    2.7997   27.0678 C   0  0  0  0  0  0  0  0  0  0  0  0
   -8.5911    5.3704   27.2036 C   0  0  0  0  0  0  0  0  0  0  0  0
   -9.9544    5.1489   27.1401 C   0  0  0  0  0  0  0  0  0  0  0  0
  -10.4577    3.9280   27.0818 C   0  0  0  0  0  0  0  0  0  0  0  0
   -8.0043    6.7223   27.2944 C   0  0  0  0  0  0  0  0  0  0  0  0
  -10.0744    1.3982   26.9547 C   0  0  0  0  0  0  0  0  0  0  0  0
   -9.1430    0.4385   27.0542 C   0  0  0  0  0  0  0  0  0  0  0  0
   -9.5783   -0.9348   27.1170 C   0  0  0  0  0  0  0  0  0  0  0  0
  -10.9558   -1.1735   27.2209 C   0  0  0  0  0  0  0  0  0  0  0  0
  -11.4250    1.0352   27.3658 C   0  0  0  0  0  0  0  0  0  0  0  0
  -12.3498    2.2255   27.4912 C   0  0  0  0  0  0  0  0  0  0  0  0
  -11.8565   -0.2001   27.4554 C   0  0  0  0  0  0  0  0  0  0  0  0
  -11.8872    3.5585   27.4520 C   0  0  0  0  0  0  0  0  0  0  0  0
   -8.0434    7.8077   26.7411 N   0  0  0  0  0  0  0  0  0  0  0  0
   -6.7879    6.5855   28.0531 O   0  0  0  0  0  0  0  0  0  0  0  0
  -12.2640    4.4803   28.6320 C   0  0  0  0  0  0  0  0  0  0  0  0
  4  7  1  0
  7 16  1  0
  7 17  2  0
 15 18  1  0
  8  9  2  0
  9 10  1  0
 10 11  2  0
 11 14  1  0
 14 12  2  0
  1  2  2  0
  2  3  1  0
  6  5  1  0
  5  4  2  0
  4  1  1  0
  3  6  2  0
  6 15  1  0
 15 13  2  0
 13 12  1  0
 12  8  1  0
  8  3  1  0
M  END
$$$$
