No_9750-complexes_sdf/6BKW-FPZ/2024-09-17-14-21-01/
     RDKit          3D

 32 34  0  0  0  0  0  0  0  0999 V2000
   -7.2496    3.8871   27.4508 C   0  0  0  0  0  0  0  0  0  0  0  0
   -7.9379    4.9063   27.8518 C   0  0  0  0  0  0  0  0  0  0  0  0
   -7.4895    6.2027   27.7481 C   0  0  0  0  0  0  0  0  0  0  0  0
   -7.8057    2.6324   27.3137 C   0  0  0  0  0  0  0  0  0  0  0  0
   -9.1872    2.4678   27.5434 C   0  0  0  0  0  0  0  0  0  0  0  0
   -9.7707    1.1571   27.4183 C   0  0  0  0  0  0  0  0  0  0  0  0
   -9.9270    3.5128   28.1114 C   0  0  0  0  0  0  0  0  0  0  0  0
   -9.3809    4.8089   28.1575 C   0  0  0  0  0  0  0  0  0  0  0  0
  -11.0034    0.9418   27.9007 C   0  0  0  0  0  0  0  0  0  0  0  0
  -11.7577    2.0705   28.4484 C   0  0  0  0  0  0  0  0  0  0  0  0
  -11.2610    3.3248   28.5246 C   0  0  0  0  0  0  0  0  0  0  0  0
   -7.6012    7.2910   27.0716 N   0  0  0  0  0  0  0  0  0  0  0  0
   -7.0121    1.4892   26.8893 C   0  0  0  0  0  0  0  0  0  0  0  0
   -6.3103    0.9612   27.8303 F   0  0  0  0  0  0  0  0  0  0  0  0
   -6.1821    1.7900   25.8520 F   0  0  0  0  0  0  0  0  0  0  0  0
   -7.7181    0.3991   26.4409 F   0  0  0  0  0  0  0  0  0  0  0  0
   -8.6481    7.2539   26.1984 C   0  0  0  0  0  0  0  0  0  0  0  0
  -13.1797    1.7531   28.9156 C   0  0  0  0  0  0  0  0  0  0  0  0
  -14.1025    1.7840   28.0083 C   0  0  0  0  0  0  0  0  0  0  0  0
  -14.2683    2.0845   27.0053 C   0  0  0  0  0  0  0  0  0  0  0  0
  -15.4854    2.0525   26.1764 C   0  0  0  0  0  0  0  0  0  0  0  0
  -15.5979    2.5433   24.8524 C   0  0  0  0  0  0  0  0  0  0  0  0
  -14.4351    3.1061   24.2763 C   0  0  0  0  0  0  0  0  0  0  0  0
  -13.2339    3.2114   24.9583 C   0  0  0  0  0  0  0  0  0  0  0  0
  -13.1536    2.8322   26.1790 C   0  0  0  0  0  0  0  0  0  0  0  0
  -15.3673    1.0364   28.6976 C   0  0  0  0  0  0  0  0  0  0  0  0
  -16.1274    1.7392   29.5661 C   0  0  0  0  0  0  0  0  0  0  0  0
  -15.5979    2.6854   30.3022 C   0  0  0  0  0  0  0  0  0  0  0  0
  -16.4246    3.5093   31.1590 C   0  0  0  0  0  0  0  0  0  0  0  0
  -15.8986    4.6405   31.7781 C   0  0  0  0  0  0  0  0  0  0  0  0
  -14.5055    4.9666   31.7329 C   0  0  0  0  0  0  0  0  0  0  0  0
  -13.7148    4.1242   30.9422 C   0  0  0  0  0  0  0  0  0  0  0  0
  2  3  1  0
  3 12  2  3
  4 13  1  0
 13 14  1  0
 13 15  1  0
 13 16  1  0
 12 17  1  0
 10 18  1  0
 18 19  1  0
 19 20  1  0
 19 26  1  0
 26 27  1  0
 27 28  2  3
 28 29  1  0
 29 30  2  3
 30 31  1  0
 31 32  2  0
  5  6  1  0
  6  9  2  0
  9 10  1  0
 10 11  2  0
 11  7  1  0
  1  2  2  0
  2  8  1  0
  8  7  2  0
  7  5  1  0
  5  4  2  0
  4  1  1  0
 20 21  2  0
 21 22  1  0
 22 23  2  0
 23 24  1  0
 24 25  2  0
 25 20  1  0
M  END
$$$$
