No_9042-complexes_sdf/6BKW-FPZ/2024-09-17-14-21-01/
     RDKit          3D

 15 16  0  0  0  0  0  0  0  0999 V2000
   -7.7129    4.2099   27.0854 C   0  0  0  0  0  0  0  0  0  0  0  0
   -8.9133    4.4736   27.0998 C   0  0  2  0  0  0  0  0  0  0  0  0
   -9.7135    3.9633   26.0300 C   0  0  0  0  0  0  0  0  0  0  0  0
   -6.8420    4.9760   28.0851 C   0  0  0  0  0  0  0  0  0  0  0  0
   -9.9322    2.5915   25.9958 C   0  0  0  0  0  0  0  0  0  0  0  0
  -10.4230    2.0654   24.9049 C   0  0  0  0  0  0  0  0  0  0  0  0
  -10.3841    2.7482   23.7921 C   0  0  0  0  0  0  0  0  0  0  0  0
  -10.2848    4.1601   23.6991 C   0  0  0  0  0  0  0  0  0  0  0  0
   -9.8096    4.7744   24.8635 C   0  0  0  0  0  0  0  0  0  0  0  0
   -9.5512    5.4001   28.0000 C   0  0  0  0  0  0  0  0  0  0  0  0
   -8.9585    3.6061   28.0084 C   0  0  2  0  0  0  0  0  0  0  0  0
   -9.7328    2.5710   28.1032 C   0  0  0  0  0  0  0  0  0  0  0  0
   -8.5388    4.0435   29.3042 O   0  0  0  0  0  0  0  0  0  0  0  0
   -9.2777    1.6896   26.7952 C   0  0  0  0  0  0  0  0  0  0  0  0
   -8.6591    3.5560   29.2886 F   0  0  0  0  0  0  0  0  0  0  0  0
  1  2  1  0
  2  3  1  0
  1  4  1  0
  2 10  1  1
  2 11  1  0
 11 12  1  0
 11 13  1  1
  5 14  1  0
 12 14  1  0
 13 15  1  0
  3  5  2  0
  5  6  1  0
  6  7  2  0
  7  8  1  0
  8  9  2  0
  9  3  1  0
M  END
$$$$
