No_9690-complexes_sdf/6BKW-FPZ/2024-09-17-14-21-01/
     RDKit          3D

 35 39  0  0  0  0  0  0  0  0999 V2000
   -7.9040    3.9820   27.1177 C   0  0  0  0  0  0  0  0  0  0  0  0
   -9.0711    4.3164   27.0630 C   0  0  0  0  0  0  0  0  0  0  0  0
   -9.5294    5.4517   27.7215 C   0  0  0  0  0  0  0  0  0  0  0  0
   -6.9328    4.7309   27.8881 C   0  0  0  0  0  0  0  0  0  0  0  0
   -7.3377    5.8421   28.5537 C   0  0  0  0  0  0  0  0  0  0  0  0
   -8.6411    6.2609   28.3972 C   0  0  0  0  0  0  0  0  0  0  0  0
  -10.0467    3.4917   26.2630 C   0  0  0  0  0  0  0  0  0  0  0  0
  -10.6901    2.6509   26.7331 C   0  0  0  0  0  0  0  0  0  0  0  0
  -10.8509    2.2740   27.8650 C   0  0  0  0  0  0  0  0  0  0  0  0
  -11.5983    1.1682   28.4836 C   0  0  0  0  0  0  0  0  0  0  0  0
  -12.2034    0.3531   27.5812 C   0  0  0  0  0  0  0  0  0  0  0  0
  -12.1186    0.5943   26.2631 C   0  0  0  0  0  0  0  0  0  0  0  0
  -11.4030    1.6399   25.8010 C   0  0  0  0  0  0  0  0  0  0  0  0
  -10.0523    3.9549   24.8369 C   0  0  0  0  0  0  0  0  0  0  0  0
  -10.9302    4.7439   24.3715 C   0  0  0  0  0  0  0  0  0  0  0  0
  -11.3619    4.4148   23.0856 C   0  0  0  0  0  0  0  0  0  0  0  0
  -11.6193    3.4257   22.7361 C   0  0  0  0  0  0  0  0  0  0  0  0
  -10.6739    2.3937   23.0320 C   0  0  0  0  0  0  0  0  0  0  0  0
   -9.7229    2.8434   24.0147 C   0  0  0  0  0  0  0  0  0  0  0  0
  -10.6143    1.1086   22.4854 C   0  0  0  0  0  0  0  0  0  0  0  0
   -9.5513    0.2787   22.7531 C   0  0  0  0  0  0  0  0  0  0  0  0
   -9.3734   -0.9565   22.1343 C   0  0  0  0  0  0  0  0  0  0  0  0
  -10.2325   -1.2521   21.0632 C   0  0  0  0  0  0  0  0  0  0  0  0
  -11.3570    0.7539   21.3520 C   0  0  0  0  0  0  0  0  0  0  0  0
  -11.1939   -0.4104   20.6919 C   0  0  0  0  0  0  0  0  0  0  0  0
  -12.8405   -0.3049   25.3339 C   0  0  0  0  0  0  0  0  0  0  0  0
  -13.7929   -1.0617   25.7784 C   0  0  0  0  0  0  0  0  0  0  0  0
  -14.4444   -1.8899   24.8766 C   0  0  0  0  0  0  0  0  0  0  0  0
  -14.0675   -1.8659   23.5132 C   0  0  0  0  0  0  0  0  0  0  0  0
  -13.0691   -1.0416   23.0890 C   0  0  0  0  0  0  0  0  0  0  0  0
  -12.4181   -0.2131   23.9829 C   0  0  0  0  0  0  0  0  0  0  0  0
   -5.7435    4.3738   28.0776 F   0  0  0  0  0  0  0  0  0  0  0  0
   -9.9848   -2.5018   20.3276 C   0  0  0  0  0  0  0  0  0  0  0  0
   -9.8013   -2.7005   19.2953 O   0  0  0  0  0  0  0  0  0  0  0  0
   -9.9342   -3.6496   21.1456 O   0  0  0  0  0  0  0  0  0  0  0  0
  2  7  1  0
  7  8  1  0
  7 14  1  0
 18 20  1  0
 12 26  1  0
  4 32  1  0
 23 33  1  0
 33 34  2  0
 33 35  1  0
  1  2  2  0
  2  3  1  0
  3  6  2  0
  6  5  1  0
  5  4  2  0
  4  1  1  0
 14 15  2  0
 15 16  1  0
 16 17  2  0
 17 18  1  0
 18 19  2  0
 19 14  1  0
 20 21  2  0
 21 22  1  0
 22 23  2  0
 23 25  1  0
 25 24  2  0
 24 20  1  0
 26 27  2  0
 27 28  1  0
 28 29  2  0
 29 30  1  0
 30 31  2  0
 31 26  1  0
  8  9  2  0
  9 10  1  0
 10 11  2  0
 11 12  1  0
 12 13  2  0
 13  8  1  0
M  END
$$$$
