No_9435-complexes_sdf/6BKW-FPZ/2024-09-17-14-21-01/
     RDKit          3D

 33 36  0  0  0  0  0  0  0  0999 V2000
   -7.2496    3.8871   27.4508 C   0  0  0  0  0  0  0  0  0  0  0  0
   -7.6161    2.7143   27.1523 C   0  0  0  0  0  0  0  0  0  0  0  0
   -8.6212    2.2239   26.4074 C   0  0  0  0  0  0  0  0  0  0  0  0
   -8.2539    4.9237   27.1712 C   0  0  0  0  0  0  0  0  0  0  0  0
   -9.3709    4.6019   26.4511 C   0  0  0  0  0  0  0  0  0  0  0  0
   -9.5922    3.3274   26.0949 C   0  0  0  0  0  0  0  0  0  0  0  0
   -7.7257    6.2652   27.5789 C   0  0  0  0  0  0  0  0  0  0  0  0
  -10.7770    3.0000   25.2860 C   0  0  0  0  0  0  0  0  0  0  0  0
  -11.9066    2.8857   25.7670 C   0  0  0  0  0  0  0  0  0  0  0  0
  -10.5844    2.8592   23.8492 C   0  0  0  0  0  0  0  0  0  0  0  0
  -11.5518    2.7508   22.9475 C   0  0  0  0  0  0  0  0  0  0  0  0
  -13.0978    2.7665   24.9108 C   0  0  0  0  0  0  0  0  0  0  0  0
  -12.8735    2.6838   23.5444 C   0  0  0  0  0  0  0  0  0  0  0  0
   -6.5514    1.5423   27.4928 C   0  0  0  0  0  0  0  0  0  0  0  0
   -5.4013    1.8597   28.0604 N   0  0  0  0  0  0  0  0  0  0  0  0
   -4.5281    0.8245   28.3517 C   0  0  0  0  0  0  0  0  0  0  0  0
   -3.3176    0.9652   28.6374 C   0  0  0  0  0  0  0  0  0  0  0  0
   -5.2045   -0.4881   28.5005 C   0  0  0  0  0  0  0  0  0  0  0  0
   -6.4804   -0.7266   28.0776 C   0  0  0  0  0  0  0  0  0  0  0  0
   -7.1763    0.3663   27.5958 C   0  0  0  0  0  0  0  0  0  0  0  0
   -2.7842    0.3898   29.6047 F   0  0  0  0  0  0  0  0  0  0  0  0
   -2.5563    0.4998   27.4406 F   0  0  0  0  0  0  0  0  0  0  0  0
   -6.7347    6.5637   27.8893 O   0  0  0  0  0  0  0  0  0  0  0  0
   -8.5931    7.3143   27.1014 O   0  0  0  0  0  0  0  0  0  0  0  0
  -11.4046    2.6668   21.5433 C   0  0  0  0  0  0  0  0  0  0  0  0
  -10.3204    3.0060   20.9312 C   0  0  0  0  0  0  0  0  0  0  0  0
  -10.2177    3.0020   19.5142 C   0  0  0  0  0  0  0  0  0  0  0  0
  -11.3308    2.6312   18.7600 C   0  0  0  0  0  0  0  0  0  0  0  0
  -12.4687    2.5703   20.5451 C   0  0  0  0  0  0  0  0  0  0  0  0
  -12.4339    2.5255   19.3017 C   0  0  0  0  0  0  0  0  0  0  0  0
   -7.0413   -2.0327   28.1657 C   0  0  0  0  0  0  0  0  0  0  0  0
   -6.5676   -2.9066   28.5264 C   0  0  0  0  0  0  0  0  0  0  0  0
   -5.2336   -2.8467   29.0698 C   0  0  0  0  0  0  0  0  0  0  0  0
  4  7  1  0
  6  8  1  0
  2 14  1  0
 16 17  1  0
 17 21  1  0
 17 22  1  0
  7 23  2  0
  7 24  1  0
 11 25  1  0
 19 31  1  0
 31 32  2  3
 32 33  1  0
 14 15  2  0
 15 16  1  0
 16 18  2  0
 18 19  1  0
 19 20  2  0
 20 14  1  0
  1  2  2  0
  2  3  1  0
  3  6  2  0
  6  5  1  0
  5  4  2  0
  4  1  1  0
 25 26  2  0
 26 27  1  0
 27 28  2  0
 28 30  1  0
 30 29  2  0
 29 25  1  0
  8  9  2  0
  9 12  1  0
 12 13  2  0
 13 11  1  0
 11 10  2  0
 10  8  1  0
M  END
$$$$
