No_9457-complexes_sdf/6BKW-FPZ/2024-09-17-14-21-01/
     RDKit          3D

 17 19  0  0  0  0  0  0  0  0999 V2000
   -7.9040    3.9820   27.1177 C   0  0  0  0  0  0  0  0  0  0  0  0
   -8.2057    2.8231   26.8733 C   0  0  0  0  0  0  0  0  0  0  0  0
   -7.0130    4.3706   28.1140 C   0  0  0  0  0  0  0  0  0  0  0  0
   -7.4093    1.7370   27.3857 C   0  0  0  0  0  0  0  0  0  0  0  0
   -6.1943    2.1490   28.0403 C   0  0  0  0  0  0  0  0  0  0  0  0
   -5.9708    3.4680   28.3199 C   0  0  0  0  0  0  0  0  0  0  0  0
   -8.9091    5.0939   26.7085 C   0  0  0  0  0  0  0  0  0  0  0  0
   -9.0084    6.2247   27.3657 N   0  0  0  0  0  0  0  0  0  0  0  0
   -9.5541    4.9420   25.6041 O   0  0  0  0  0  0  0  0  0  0  0  0
   -5.2364    1.0766   28.4006 C   0  0  0  0  0  0  0  0  0  0  0  0
   -3.9723    1.3390   28.8045 C   0  0  0  0  0  0  0  0  0  0  0  0
   -3.1530    0.2624   29.2011 C   0  0  0  0  0  0  0  0  0  0  0  0
   -5.6782   -0.2568   28.3981 C   0  0  0  0  0  0  0  0  0  0  0  0
   -6.9462   -0.5711   27.9608 C   0  0  0  0  0  0  0  0  0  0  0  0
   -7.7397    0.3742   27.3557 C   0  0  0  0  0  0  0  0  0  0  0  0
   -3.5814   -1.0376   29.2153 C   0  0  0  0  0  0  0  0  0  0  0  0
   -4.8667   -1.3262   28.8029 C   0  0  0  0  0  0  0  0  0  0  0  0
  1  7  1  0
  7  8  1  0
  7  9  2  0
  1  2  2  0
  2  4  1  0
  5  6  1  0
  6  3  2  0
  3  1  1  0
  4  5  2  0
  5 10  1  0
 13 14  1  0
 14 15  2  0
 15  4  1  0
 10 11  2  0
 11 12  1  0
 12 16  2  0
 16 17  1  0
 17 13  2  0
 13 10  1  0
M  END
$$$$
