No_9923-complexes_sdf/6BKW-FPZ/2024-09-17-14-21-01/
     RDKit          3D

 15 17  0  0  0  0  0  0  0  0999 V2000
   -7.9040    3.9820   27.1177 C   0  0  0  0  0  0  0  0  0  0  0  0
   -7.8663    4.8694   27.9238 C   0  0  0  0  0  0  0  0  0  0  0  0
   -9.0491    3.8523   26.2542 C   0  0  0  0  0  0  0  0  0  0  0  0
   -9.9827    3.2456   26.6451 C   0  0  1  0  0  0  0  0  0  0  0  0
  -10.7367    3.8670   27.7658 C   0  0  2  0  0  0  0  0  0  0  0  0
   -8.9700    5.2194   28.8729 C   0  0  0  0  0  0  0  0  0  0  0  0
  -10.1294    4.3350   28.9594 C   0  0  0  0  0  0  0  0  0  0  0  0
  -12.1882    3.6263   27.8431 C   0  0  0  0  0  0  0  0  0  0  0  0
  -12.5974    2.3688   28.1683 C   0  0  0  0  0  0  0  0  0  0  0  0
  -11.9237    1.2962   27.9504 C   0  0  1  0  0  0  0  0  0  0  0  0
  -12.2539    0.0231   28.4357 C   0  0  0  0  0  0  0  0  0  0  0  0
  -10.6611    2.1713   25.9939 C   0  0  0  0  0  0  0  0  0  0  0  0
  -11.1506    1.1138   26.8192 C   0  0  0  0  0  0  0  0  0  0  0  0
  -11.3100   -0.8743   28.0212 N   0  0  0  0  0  0  0  0  0  0  0  0
  -10.6103   -0.1722   27.0431 C   0  0  0  0  0  0  0  0  0  0  0  0
  1  2  1  0
  1  3  1  0
  4  3  1  6
  4  5  1  0
  2  6  2  0
  5  7  1  1
  6  7  1  0
  5  8  1  0
  8  9  1  0
 10  9  1  6
 10 11  1  0
  4 12  1  0
 10 13  1  0
 12 13  2  0
 11 14  2  0
 13 15  1  0
 14 15  1  0
M  END
$$$$
