No_9779-complexes_sdf/6BKW-FPZ/2024-09-17-14-21-01/
     RDKit          3D

 30 32  0  0  0  0  0  0  0  0999 V2000
   -7.7129    4.2099   27.0854 C   0  0  0  0  0  0  0  0  0  0  0  0
   -8.2112    3.0637   26.9225 C   0  0  0  0  0  0  0  0  0  0  0  0
   -7.5138    1.9223   27.4249 C   0  0  0  0  0  0  0  0  0  0  0  0
   -8.5309    5.4147   26.8151 C   0  0  0  0  0  0  0  0  0  0  0  0
   -8.1184    6.7672   27.1362 C   0  0  2  0  0  0  0  0  0  0  0  0
   -7.9453    0.5890   27.2424 C   0  0  0  0  0  0  0  0  0  0  0  0
   -9.2846    0.4513   26.8076 C   0  0  0  0  0  0  0  0  0  0  0  0
  -10.0204    1.5585   26.4266 C   0  0  0  0  0  0  0  0  0  0  0  0
   -9.4894    2.8275   26.5368 C   0  0  0  0  0  0  0  0  0  0  0  0
   -9.8664    5.1142   26.3843 C   0  0  0  0  0  0  0  0  0  0  0  0
  -10.3383    3.9025   26.2304 C   0  0  0  0  0  0  0  0  0  0  0  0
   -8.8411    7.8854   26.6749 C   0  0  0  0  0  0  0  0  0  0  0  0
   -7.1308   -0.5237   27.6963 C   0  0  0  0  0  0  0  0  0  0  0  0
   -5.7949   -0.3442   27.8897 C   0  0  0  0  0  0  0  0  0  0  0  0
   -4.9463   -1.4008   28.2731 C   0  0  0  0  0  0  0  0  0  0  0  0
   -5.5323   -2.6012   28.5448 C   0  0  0  0  0  0  0  0  0  0  0  0
   -7.5780   -1.7992   27.9702 C   0  0  0  0  0  0  0  0  0  0  0  0
   -6.8471   -2.7968   28.4094 C   0  0  0  0  0  0  0  0  0  0  0  0
   -6.9930    6.8405   27.7639 F   0  0  0  0  0  0  0  0  0  0  0  0
   -3.4916   -1.0837   28.5125 C   0  0  0  0  0  0  0  0  0  0  0  0
   -2.9682   -0.0756   27.7816 C   0  0  0  0  0  0  0  0  0  0  0  0
   -2.8526   -0.0362   26.6042 C   0  0  0  0  0  0  0  0  0  0  0  0
   -2.4508    1.2167   26.0002 N   0  0  0  0  0  0  0  0  0  0  0  0
   -3.0495   -0.9624   25.7852 O   0  0  0  0  0  0  0  0  0  0  0  0
  -11.6442    3.7644   25.6608 C   0  0  2  0  0  0  0  0  0  0  0  0
  -12.5055    3.2692   26.2760 F   0  0  0  0  0  0  0  0  0  0  0  0
  -11.8178    4.0523   24.2873 C   0  0  0  0  0  0  0  0  0  0  0  0
  -10.7850    4.1352   23.3392 C   0  0  0  0  0  0  0  0  0  0  0  0
  -11.0124    4.5174   22.0300 C   0  0  0  0  0  0  0  0  0  0  0  0
  -12.3232    4.7493   21.6672 C   0  0  0  0  0  0  0  0  0  0  0  0
  5 12  1  6
  6 13  1  0
  5 19  1  0
 15 20  1  0
 20 21  1  0
 21 22  1  0
 22 23  1  0
 22 24  2  0
 11 25  1  0
 25 26  1  6
 25 27  1  0
 27 28  1  0
 28 29  2  3
 29 30  1  0
  5  4  1  0
  1  2  2  0
  9 11  2  0
 11 10  1  0
 10  4  2  0
  4  1  1  0
  2  3  1  0
  3  6  2  0
  6  7  1  0
  7  8  2  0
  8  9  1  0
  9  2  1  0
 13 14  2  0
 14 15  1  0
 15 16  2  0
 16 18  1  0
 18 17  2  0
 17 13  1  0
M  END
$$$$
