No_9945-complexes_sdf/6BKW-FPZ/2024-09-17-14-21-01/
     RDKit          3D

 40 44  0  0  0  0  0  0  0  0999 V2000
   -7.7129    4.2099   27.0854 C   0  0  0  0  0  0  0  0  0  0  0  0
   -7.7814    5.1722   27.8972 C   0  0  1  0  0  0  0  0  0  0  0  0
   -7.3155    2.9700   27.6145 C   0  0  0  0  0  0  0  0  0  0  0  0
   -7.9010    1.7962   27.2023 C   0  0  0  0  0  0  0  0  0  0  0  0
   -8.9847    1.8780   26.3510 C   0  0  0  0  0  0  0  0  0  0  0  0
   -9.4383    3.0861   25.8930 C   0  0  0  0  0  0  0  0  0  0  0  0
   -8.9232    4.1639   26.3688 C   0  0  0  0  0  0  0  0  0  0  0  0
   -7.0772    5.2871   29.0229 N   0  0  0  0  0  0  0  0  0  0  0  0
   -8.0890    6.7967   27.2751 Cl  0  0  0  0  0  0  0  0  0  0  0  0
  -10.5309    3.1215   24.8735 C   0  0  0  0  0  0  0  0  0  0  0  0
  -11.6946    3.3531   25.2188 C   0  0  0  0  0  0  0  0  0  0  0  0
  -10.1417    2.8797   23.5107 C   0  0  0  0  0  0  0  0  0  0  0  0
  -10.9736    3.0783   22.4436 C   0  0  0  0  0  0  0  0  0  0  0  0
  -12.7108    3.5865   24.1612 C   0  0  0  0  0  0  0  0  0  0  0  0
  -12.3253    3.4372   22.8178 C   0  0  0  0  0  0  0  0  0  0  0  0
   -7.3042    0.5018   27.6132 C   0  0  0  0  0  0  0  0  0  0  0  0
   -5.9233    0.2852   27.7948 C   0  0  0  0  0  0  0  0  0  0  0  0
   -5.4085   -0.9028   28.2213 C   0  0  0  0  0  0  0  0  0  0  0  0
   -6.2921   -1.9707   28.3611 C   0  0  0  0  0  0  0  0  0  0  0  0
   -8.0213   -0.6753   27.8215 C   0  0  0  0  0  0  0  0  0  0  0  0
   -7.5986   -1.8219   28.2012 C   0  0  0  0  0  0  0  0  0  0  0  0
   -3.9266   -1.0116   28.4821 C   0  0  2  0  0  0  0  0  0  0  0  0
   -3.2480   -1.8395   27.5935 C   0  0  0  0  0  0  0  0  0  0  0  0
   -3.0553   -1.6524   26.5346 C   0  0  0  0  0  0  0  0  0  0  0  0
   -2.4562   -2.4762   25.5697 C   0  0  0  0  0  0  0  0  0  0  0  0
   -2.1004   -3.4065   25.8821 C   0  0  0  0  0  0  0  0  0  0  0  0
   -2.6479   -3.0923   28.0859 C   0  0  0  0  0  0  0  0  0  0  0  0
   -2.0291   -3.8754   27.2370 C   0  0  0  0  0  0  0  0  0  0  0  0
   -3.6980   -1.3461   29.9562 C   0  0  0  0  0  0  0  0  0  0  0  0
   -3.3009    0.5058   28.2591 C   0  0  0  0  0  0  0  0  0  0  0  0
   -2.8254   -0.9582   30.7283 C   0  0  0  0  0  0  0  0  0  0  0  0
   -2.8323   -1.2649   32.1768 C   0  0  0  0  0  0  0  0  0  0  0  0
   -1.9515   -0.7454   32.9807 C   0  0  0  0  0  0  0  0  0  0  0  0
   -1.7437   -0.6459   34.2810 C   0  0  0  0  0  0  0  0  0  0  0  0
   -1.6425   -1.4216   34.9773 C   0  0  0  0  0  0  0  0  0  0  0  0
   -1.5998   -1.3249   36.4189 C   0  0  0  0  0  0  0  0  0  0  0  0
   -1.5967   -0.0244   36.9718 C   0  0  0  0  0  0  0  0  0  0  0  0
   -1.8258    1.0228   36.0855 C   0  0  0  0  0  0  0  0  0  0  0  0
   -1.8752    0.7909   34.7566 C   0  0  0  0  0  0  0  0  0  0  0  0
   -3.7815   -2.1292   32.6794 C   0  0  0  0  0  0  0  0  0  0  0  0
  1  2  1  0
  2  8  1  6
  2  9  1  0
  6 10  1  0
  4 16  1  0
 18 22  1  0
 22 23  1  0
 22 29  1  0
 22 30  1  1
 29 31  2  3
 31 32  1  0
 32 33  2  3
 33 34  1  0
 32 40  1  0
  1  3  2  0
  3  4  1  0
  4  5  2  0
  5  6  1  0
  6  7  2  0
  7  1  1  0
 10 11  2  0
 11 14  1  0
 14 15  2  0
 15 13  1  0
 13 12  2  0
 12 10  1  0
 23 24  2  0
 24 25  1  0
 25 26  2  0
 26 28  1  0
 28 27  2  0
 27 23  1  0
 34 35  2  0
 35 36  1  0
 36 37  2  0
 37 38  1  0
 38 39  2  0
 39 34  1  0
 16 17  2  0
 17 18  1  0
 18 19  2  0
 19 21  1  0
 21 20  2  0
 20 16  1  0
M  END
$$$$
