No_9448-complexes_sdf/6BKW-FPZ/2024-09-17-14-21-01/
     RDKit          3D

 19 19  0  0  0  0  0  0  0  0999 V2000
   -7.2496    3.8871   27.4508 C   0  0  0  0  0  0  0  0  0  0  0  0
   -8.5096    4.0291   27.2770 C   0  0  2  0  0  0  0  0  0  0  0  0
   -9.2669    5.1645   27.5845 C   0  0  2  0  0  0  0  0  0  0  0  0
  -10.6621    5.2321   27.4284 C   0  0  0  0  0  0  0  0  0  0  0  0
   -9.4015    2.8584   27.0493 C   0  0  0  0  0  0  0  0  0  0  0  0
   -8.7012    1.6337   26.7435 C   0  0  1  0  0  0  0  0  0  0  0  0
   -6.5638    2.6268   27.3850 C   0  0  0  0  0  0  0  0  0  0  0  0
   -7.3204    1.5336   27.0236 C   0  0  2  0  0  0  0  0  0  0  0  0
   -8.5224    6.4256   27.7923 C   0  0  0  0  0  0  0  0  0  0  0  0
   -6.5263    0.0572   26.7767 Cl  0  0  0  0  0  0  0  0  0  0  0  0
   -7.9242    6.9565   26.5617 C   0  0  0  0  0  0  0  0  0  0  0  0
   -8.8919    7.3669   25.6646 C   0  0  0  0  0  0  0  0  0  0  0  0
   -7.3402    8.3851   27.1412 C   0  0  0  0  0  0  0  0  0  0  0  0
   -9.4915    0.4757   26.3948 C   0  0  0  0  0  0  0  0  0  0  0  0
   -9.0570   -0.4176   26.5697 F   0  0  0  0  0  0  0  0  0  0  0  0
  -10.7180    0.6779   26.9526 F   0  0  0  0  0  0  0  0  0  0  0  0
   -9.7255    0.8195   25.0293 F   0  0  0  0  0  0  0  0  0  0  0  0
   -8.5609    2.0980   25.8264 F   0  0  0  0  0  0  0  0  0  0  0  0
  -10.5475    2.9002   27.1010 O   0  0  0  0  0  0  0  0  0  0  0  0
  2  3  1  0
  3  4  1  6
  2  5  1  0
  5  6  1  0
  1  7  1  0
  6  8  1  0
  3  9  1  0
  8 10  1  6
  9 11  1  0
 11 12  1  0
 11 13  1  0
  6 14  1  0
 14 15  1  0
 14 16  1  0
 14 17  1  0
  6 18  1  6
  5 19  2  0
  2  1  1  1
  7  8  1  0
M  END
$$$$
