No_9878-complexes_sdf/6BKW-FPZ/2024-09-17-14-21-01/
     RDKit          3D

 20 22  0  0  0  0  0  0  0  0999 V2000
   -7.9040    3.9820   27.1177 C   0  0  0  0  0  0  0  0  0  0  0  0
   -7.8663    4.8694   27.9238 C   0  0  0  0  0  0  0  0  0  0  0  0
   -9.0491    3.8523   26.2542 C   0  0  0  0  0  0  0  0  0  0  0  0
   -8.7661    5.9491   27.9690 C   0  0  0  0  0  0  0  0  0  0  0  0
   -9.9295    4.8502   26.2323 C   0  0  0  0  0  0  0  0  0  0  0  0
   -9.8077    5.9288   27.0933 C   0  0  0  0  0  0  0  0  0  0  0  0
   -6.9606    2.7994   27.1981 C   0  0  0  0  0  0  0  0  0  0  0  0
   -5.8717    2.9147   27.8925 N   0  0  0  0  0  0  0  0  0  0  0  0
   -7.3614    1.4796   26.8228 C   0  0  0  0  0  0  0  0  0  0  0  0
   -8.5590    1.1210   26.2997 C   0  0  0  0  0  0  0  0  0  0  0  0
   -6.3857    0.4790   27.1367 C   0  0  0  0  0  0  0  0  0  0  0  0
   -6.6887   -0.8628   26.8309 C   0  0  0  0  0  0  0  0  0  0  0  0
   -8.8321   -0.2026   25.9935 C   0  0  0  0  0  0  0  0  0  0  0  0
   -7.9126   -1.1562   26.2499 C   0  0  0  0  0  0  0  0  0  0  0  0
  -10.1333   -0.5345   25.3926 C   0  0  0  0  0  0  0  0  0  0  0  0
  -10.2369   -1.0104   24.3666 C   0  0  0  0  0  0  0  0  0  0  0  0
  -11.4959   -1.2662   23.6727 C   0  0  0  0  0  0  0  0  0  0  0  0
  -11.2716   -0.1560   26.1741 C   0  0  0  0  0  0  0  0  0  0  0  0
  -12.5577   -0.4082   25.6960 C   0  0  0  0  0  0  0  0  0  0  0  0
  -12.6405   -0.9641   24.4302 C   0  0  0  0  0  0  0  0  0  0  0  0
  1  7  1  0
  7  8  2  0
  7  9  1  0
 13 15  1  0
  9 10  2  0
 10 13  1  0
 13 14  2  0
 14 12  1  0
 12 11  2  0
 11  9  1  0
  1  2  2  0
  2  4  1  0
  4  6  2  0
  6  5  1  0
  5  3  2  0
  3  1  1  0
 15 16  2  0
 16 17  1  0
 17 20  2  0
 20 19  1  0
 19 18  2  0
 18 15  1  0
M  END
$$$$
