No_9417-complexes_sdf/6BKW-FPZ/2024-09-17-14-21-01/
     RDKit          3D

 20 21  0  0  0  0  0  0  0  0999 V2000
   -7.2496    3.8871   27.4508 C   0  0  0  0  0  0  0  0  0  0  0  0
   -7.9379    4.9063   27.8518 C   0  0  0  0  0  0  0  0  0  0  0  0
   -9.3376    4.8647   27.7795 C   0  0  0  0  0  0  0  0  0  0  0  0
   -7.8544    2.6294   27.0414 C   0  0  0  0  0  0  0  0  0  0  0  0
   -9.2852    2.6570   27.0666 C   0  0  0  0  0  0  0  0  0  0  0  0
  -10.0126    3.7528   27.4890 C   0  0  0  0  0  0  0  0  0  0  0  0
  -11.4946    3.6924   27.5201 C   0  0  0  0  0  0  0  0  0  0  0  0
  -12.0181    2.6419   28.0792 C   0  0  0  0  0  0  0  0  0  0  0  0
  -11.6565    1.5060   28.1760 C   0  0  0  0  0  0  0  0  0  0  0  0
  -12.4988    0.4197   28.6383 C   0  0  0  0  0  0  0  0  0  0  0  0
  -13.6160    0.8959   29.2112 C   0  0  0  0  0  0  0  0  0  0  0  0
  -13.4111    2.5202   28.9180 C   0  0  2  0  0  0  0  0  0  0  0  0
   -7.1806    1.6159   26.7277 F   0  0  0  0  0  0  0  0  0  0  0  0
  -14.2871    3.5426   29.1791 C   0  0  2  0  0  0  0  0  0  0  0  0
  -14.2982    4.5605   28.3544 C   0  0  0  0  0  0  0  0  0  0  0  0
  -15.0567    3.4503   30.3577 C   0  0  0  0  0  0  0  0  0  0  0  0
  -14.5862    3.4744   31.5211 C   0  0  0  0  0  0  0  0  0  0  0  0
  -13.5970    4.4244   31.9288 C   0  0  0  0  0  0  0  0  0  0  0  0
  -12.9844    4.3870   33.2369 C   0  0  0  0  0  0  0  0  0  0  0  0
  -12.2381    5.4099   33.7865 C   0  0  0  0  0  0  0  0  0  0  0  0
  6  7  1  0
  7  8  1  0
  8  9  2  0
  9 10  1  0
 10 11  2  0
  8 12  1  0
 12 11  1  6
  4 13  1  0
 12 14  1  0
 14 15  1  1
 14 16  1  0
 16 17  1  0
 17 18  1  0
 18 19  2  3
 19 20  1  0
  1  2  2  0
  2  3  1  0
  3  6  2  0
  6  5  1  0
  5  4  2  0
  4  1  1  0
M  END
$$$$
