No_9724-complexes_sdf/6BKW-FPZ/2024-09-17-14-21-01/
     RDKit          3D

 40 42  0  0  0  0  0  0  0  0999 V2000
   -7.2496    3.8871   27.4508 C   0  0  0  0  0  0  0  0  0  0  0  0
   -7.6161    2.7143   27.1523 C   0  0  0  0  0  0  0  0  0  0  0  0
   -8.6212    2.2239   26.4073 C   0  0  0  0  0  0  0  0  0  0  0  0
   -8.2540    4.9237   27.1711 C   0  0  0  0  0  0  0  0  0  0  0  0
   -9.3729    4.5806   26.4432 C   0  0  0  0  0  0  0  0  0  0  0  0
   -9.5830    3.2969   26.1026 C   0  0  0  0  0  0  0  0  0  0  0  0
   -7.9304    6.3207   27.5389 C   0  0  0  0  0  0  0  0  0  0  0  0
   -7.0021    6.5037   28.3465 F   0  0  0  0  0  0  0  0  0  0  0  0
   -8.4949    7.2771   27.0055 F   0  0  0  0  0  0  0  0  0  0  0  0
   -8.8860    0.8732   26.0813 C   0  0  2  0  0  0  0  0  0  0  0  0
   -9.1395    0.4786   24.9582 C   0  0  0  0  0  0  0  0  0  0  0  0
   -9.2446    1.4903   23.8682 C   0  0  0  0  0  0  0  0  0  0  0  0
   -9.5201    1.0898   22.5074 C   0  0  0  0  0  0  0  0  0  0  0  0
   -9.5741   -0.2881   22.2407 C   0  0  0  0  0  0  0  0  0  0  0  0
   -9.4149   -1.2557   23.2093 C   0  0  0  0  0  0  0  0  0  0  0  0
   -9.1810   -0.8644   24.4796 C   0  0  0  0  0  0  0  0  0  0  0  0
   -9.3122   -0.0518   27.2732 C   0  0  0  0  0  0  0  0  0  0  0  0
   -8.3304   -0.7744   27.5593 F   0  0  0  0  0  0  0  0  0  0  0  0
   -9.6040    0.7359   28.3929 F   0  0  0  0  0  0  0  0  0  0  0  0
  -10.4017   -0.7519   27.0215 F   0  0  0  0  0  0  0  0  0  0  0  0
   -9.7138    2.0986   21.4674 C   0  0  0  0  0  0  0  0  0  0  0  0
   -9.1434    3.2217   21.5834 N   0  0  0  0  0  0  0  0  0  0  0  0
  -10.5041    1.7974   20.5407 O   0  0  0  0  0  0  0  0  0  0  0  0
   -9.4653   -2.6357   22.8627 C   0  0  0  0  0  0  0  0  0  0  0  0
   -9.7226   -3.4617   23.4659 O   0  0  0  0  0  0  0  0  0  0  0  0
   -9.1219   -2.8868   21.5714 O   0  0  0  0  0  0  0  0  0  0  0  0
   -9.5088    4.3237   20.6342 C   0  0  0  0  0  0  0  0  0  0  0  0
   -8.4598   -2.6846   20.8353 C   0  0  0  0  0  0  0  0  0  0  0  0
   -8.7759   -2.1549   19.5626 C   0  0  0  0  0  0  0  0  0  0  0  0
   -6.9958   -2.7665   20.9941 C   0  0  0  0  0  0  0  0  0  0  0  0
   -6.0423   -2.5076   19.9574 C   0  0  0  0  0  0  0  0  0  0  0  0
   -7.8202   -2.0276   18.4576 C   0  0  0  0  0  0  0  0  0  0  0  0
   -6.5232   -2.1954   18.7125 C   0  0  0  0  0  0  0  0  0  0  0  0
   -5.5110   -2.1165   17.6211 C   0  0  0  0  0  0  0  0  0  0  0  0
   -4.7978   -3.0852   17.5036 O   0  0  0  0  0  0  0  0  0  0  0  0
   -5.0271   -1.0068   17.2049 O   0  0  0  0  0  0  0  0  0  0  0  0
   -3.8215   -1.0158   16.4407 C   0  0  0  0  0  0  0  0  0  0  0  0
   -3.7284   -0.6405   15.3346 C   0  0  0  0  0  0  0  0  0  0  0  0
   -2.8674   -0.1341   14.6124 Br  0  0  0  0  0  0  0  0  0  0  0  0
   -5.0321   -0.9055   14.7144 O   0  0  0  0  0  0  0  0  0  0  0  0
  4  7  1  0
  7  8  1  0
  7  9  1  0
  3 10  1  0
 10 17  1  1
 17 18  1  0
 17 19  1  0
 17 20  1  0
 13 21  1  0
 21 22  1  0
 21 23  2  0
 15 24  1  0
 24 25  2  0
 24 26  1  0
 22 27  1  0
 26 28  1  0
 33 34  1  0
 34 35  2  0
 34 36  1  0
 36 37  1  0
 37 38  1  0
 38 39  1  0
 38 40  2  0
 10 11  1  0
 11 12  2  0
 12 13  1  0
 13 14  2  0
 14 15  1  0
 15 16  2  0
 16 11  1  0
  1  2  2  0
  2  3  1  0
  3  6  2  0
  6  5  1  0
  5  4  2  0
  4  1  1  0
 28 29  2  0
 29 32  1  0
 32 33  2  0
 33 31  1  0
 31 30  2  0
 30 28  1  0
M  END
$$$$
