No_9098-complexes_sdf/6BKW-FPZ/2024-09-17-14-21-01/
     RDKit          3D

 23 26  0  0  0  0  0  0  0  0999 V2000
   -7.7129    4.2099   27.0854 C   0  0  0  0  0  0  0  0  0  0  0  0
   -7.7814    5.1722   27.8972 C   0  0  0  0  0  0  0  0  0  0  0  0
   -8.7889    3.2468   27.2220 C   0  0  0  0  0  0  0  0  0  0  0  0
   -8.5940    1.9755   26.6525 C   0  0  0  0  0  0  0  0  0  0  0  0
   -9.4990    1.3566   25.9026 C   0  0  0  0  0  0  0  0  0  0  0  0
   -9.2495    0.1572   25.3956 C   0  0  0  0  0  0  0  0  0  0  0  0
   -9.0099    5.7299   28.3922 C   0  0  0  0  0  0  0  0  0  0  0  0
   -9.8386    3.6896   27.9692 C   0  0  0  0  0  0  0  0  0  0  0  0
   -9.9919    4.8607   28.5425 C   0  0  0  0  0  0  0  0  0  0  0  0
   -7.3890    1.2684   26.9070 C   0  0  0  0  0  0  0  0  0  0  0  0
   -7.0791    0.0371   26.5155 C   0  0  0  0  0  0  0  0  0  0  0  0
   -8.0549   -0.5169   25.6956 C   0  0  0  0  0  0  0  0  0  0  0  0
  -11.0129    2.6484   28.0392 C   0  0  0  0  0  0  0  0  0  0  0  0
  -12.1304    3.1181   28.7849 C   0  0  0  0  0  0  0  0  0  0  0  0
  -13.1935    2.1951   29.0395 C   0  0  0  0  0  0  0  0  0  0  0  0
  -14.3250    2.5717   29.6430 C   0  0  0  0  0  0  0  0  0  0  0  0
  -14.4239    3.8777   30.0928 C   0  0  0  0  0  0  0  0  0  0  0  0
  -13.5228    4.8326   29.6934 C   0  0  0  0  0  0  0  0  0  0  0  0
  -12.4019    4.4677   29.0316 C   0  0  0  0  0  0  0  0  0  0  0  0
  -11.2646    5.2904   28.8259 N   0  0  0  0  0  0  0  0  0  0  0  0
   -7.6434   -1.8243   25.1430 C   0  0  0  0  0  0  0  0  0  0  0  0
   -8.1558   -2.2389   24.1052 C   0  0  0  0  0  0  0  0  0  0  0  0
   -9.1629   -1.4638   23.4197 C   0  0  0  0  0  0  0  0  0  0  0  0
  3  4  1  0
 12 21  1  0
 21 22  2  3
 22 23  1  0
  4  5  2  0
  5  6  1  0
  6 12  2  0
 12 11  1  0
 11 10  2  0
 10  4  1  0
  1  2  2  0
  2  7  1  0
  7  9  2  0
  8  3  2  0
  3  1  1  0
  8  9  1  0
  9 20  1  0
 20 19  2  0
 14 13  2  0
 13  8  1  0
 14 15  1  0
 15 16  2  0
 16 17  1  0
 17 18  2  0
 18 19  1  0
 19 14  1  0
M  END
$$$$
