No_9828-complexes_sdf/6BKW-FPZ/2024-09-17-14-21-01/
     RDKit          3D

 25 28  0  0  0  0  0  0  0  0999 V2000
   -7.9040    3.9820   27.1177 C   0  0  0  0  0  0  0  0  0  0  0  0
   -7.8663    4.8694   27.9238 C   0  0  0  0  0  0  0  0  0  0  0  0
   -9.0501    3.8017   26.2617 C   0  0  0  0  0  0  0  0  0  0  0  0
   -9.1826    2.7026   25.3575 C   0  0  0  0  0  0  0  0  0  0  0  0
   -8.6940    6.0131   27.8614 C   0  0  0  0  0  0  0  0  0  0  0  0
  -10.1138    4.6733   26.4644 C   0  0  0  0  0  0  0  0  0  0  0  0
   -9.9850    5.5451   27.3341 C   0  0  0  0  0  0  0  0  0  0  0  0
   -8.6999    1.4526   25.7098 C   0  0  0  0  0  0  0  0  0  0  0  0
   -8.6287    0.4388   24.7998 C   0  0  0  0  0  0  0  0  0  0  0  0
   -9.8437    2.8807   24.1597 C   0  0  0  0  0  0  0  0  0  0  0  0
   -9.8749    1.8440   23.2368 C   0  0  0  0  0  0  0  0  0  0  0  0
   -9.2503    0.6318   23.5750 C   0  0  0  0  0  0  0  0  0  0  0  0
   -9.2776   -0.4845   22.5562 C   0  0  0  0  0  0  0  0  0  0  0  0
  -10.0807   -0.4252   21.5227 C   0  0  0  0  0  0  0  0  0  0  0  0
  -10.8356    0.3823   21.3192 C   0  0  0  0  0  0  0  0  0  0  0  0
  -10.7411    1.8212   22.0556 C   0  0  0  0  0  0  0  0  0  0  0  0
   -7.9354   -0.7849   25.1561 C   0  0  0  0  0  0  0  0  0  0  0  0
   -6.8303   -0.6752   25.7590 C   0  0  0  0  0  0  0  0  0  0  0  0
   -6.2533   -1.3028   26.4664 C   0  0  0  0  0  0  0  0  0  0  0  0
   -4.9344   -1.0254   27.1871 C   0  0  0  0  0  0  0  0  0  0  0  0
   -4.5301    0.2872   27.1338 C   0  0  0  0  0  0  0  0  0  0  0  0
   -5.4026    1.2823   26.7592 C   0  0  0  0  0  0  0  0  0  0  0  0
   -6.4459    0.8836   25.9863 C   0  0  0  0  0  0  0  0  0  0  0  0
   -7.4280    1.7229   25.9008 F   0  0  0  0  0  0  0  0  0  0  0  0
   -9.5079    0.9666   26.9668 C   0  0  0  0  0  0  0  0  0  0  0  0
  3  4  1  0
  9 17  1  0
 23 24  1  0
  8 25  1  0
 17 18  1  0
 12 13  1  0
 13 14  2  0
 14 15  1  0
 15 16  2  0
 16 11  1  0
  4  8  2  0
  8  9  1  0
  9 12  2  0
 12 11  1  0
 11 10  2  0
 10  4  1  0
 18 19  2  0
 19 20  1  0
 20 21  2  0
 21 22  1  0
 22 23  2  0
 23 18  1  0
  1  2  2  0
  2  5  1  0
  5  7  2  0
  7  6  1  0
  6  3  2  0
  3  1  1  0
M  END
$$$$
