No_9272-complexes_sdf/6BKW-FPZ/2024-09-17-14-21-01/
     RDKit          3D

 17 18  0  0  0  0  0  0  0  0999 V2000
   -7.2496    3.8871   27.4508 C   0  0  0  0  0  0  0  0  0  0  0  0
   -7.6161    2.7143   27.1523 C   0  0  0  0  0  0  0  0  0  0  0  0
   -8.6212    2.2239   26.4073 C   0  0  0  0  0  0  0  0  0  0  0  0
   -8.2540    4.9237   27.1711 C   0  0  0  0  0  0  0  0  0  0  0  0
   -9.3709    4.6018   26.4511 C   0  0  0  0  0  0  0  0  0  0  0  0
   -9.5922    3.3274   26.0949 C   0  0  0  0  0  0  0  0  0  0  0  0
   -7.9189    6.3259   27.5672 C   0  0  0  0  0  0  0  0  0  0  0  0
   -8.8003    7.2915   27.1946 N   0  0  0  0  0  0  0  0  0  0  0  0
   -8.8904    0.9104   26.0429 C   0  0  0  0  0  0  0  0  0  0  0  0
   -9.2906   -0.0202   26.9390 C   0  0  0  0  0  0  0  0  0  0  0  0
   -9.8989    0.1552   27.9664 C   0  0  0  0  0  0  0  0  0  0  0  0
  -10.4690   -0.8454   28.8890 C   0  0  0  0  0  0  0  0  0  0  0  0
  -10.0377   -2.1411   28.6330 C   0  0  0  0  0  0  0  0  0  0  0  0
   -9.2615   -2.4415   27.6008 C   0  0  0  0  0  0  0  0  0  0  0  0
   -8.8631   -1.4432   26.7260 C   0  0  0  0  0  0  0  0  0  0  0  0
   -8.6639    0.6218   24.7900 O   0  0  0  0  0  0  0  0  0  0  0  0
   -6.8547    6.5662   28.1550 O   0  0  0  0  0  0  0  0  0  0  0  0
  4  7  1  0
  7  8  1  0
  3  9  1  0
  9 10  1  0
  9 16  2  0
  7 17  2  0
  1  2  2  0
  2  3  1  0
  3  6  2  0
  6  5  1  0
  5  4  2  0
  4  1  1  0
 10 11  2  0
 11 12  1  0
 12 13  2  0
 13 14  1  0
 14 15  2  0
 15 10  1  0
M  END
$$$$
