No_9132-complexes_sdf/6BKW-FPZ/2024-09-17-14-21-01/
     RDKit          3D

 23 25  0  0  0  0  0  0  0  0999 V2000
   -7.7129    4.2099   27.0854 C   0  0  0  0  0  0  0  0  0  0  0  0
   -8.2112    3.0637   26.9225 C   0  0  0  0  0  0  0  0  0  0  0  0
   -8.8911    2.3657   26.0965 C   0  0  0  0  0  0  0  0  0  0  0  0
   -8.4991    5.2195   26.3997 C   0  0  0  0  0  0  0  0  0  0  0  0
   -9.5170    4.7357   25.4962 C   0  0  0  0  0  0  0  0  0  0  0  0
   -9.6818    3.3875   25.3323 C   0  0  0  0  0  0  0  0  0  0  0  0
   -8.3297    6.6510   26.6901 C   0  0  0  0  0  0  0  0  0  0  0  0
   -7.3641    6.9186   26.9226 F   0  0  0  0  0  0  0  0  0  0  0  0
   -8.9261    7.4248   25.6778 F   0  0  0  0  0  0  0  0  0  0  0  0
   -9.3494    6.8772   27.7705 F   0  0  0  0  0  0  0  0  0  0  0  0
   -9.1031    1.0214   25.9034 C   0  0  0  0  0  0  0  0  0  0  0  0
   -8.0597    0.2487   25.8008 C   0  0  0  0  0  0  0  0  0  0  0  0
   -7.8184   -0.8787   25.7392 C   0  0  0  0  0  0  0  0  0  0  0  0
   -6.4962   -1.5955   25.6787 C   0  0  0  0  0  0  0  0  0  0  0  0
   -5.3707   -0.8402   25.9199 C   0  0  0  0  0  0  0  0  0  0  0  0
   -5.4623    0.1652   26.6284 C   0  0  0  0  0  0  0  0  0  0  0  0
   -6.7606    0.9308   26.5698 C   0  0  0  0  0  0  0  0  0  0  0  0
   -9.8943    0.7473   24.5960 C   0  0  0  0  0  0  0  0  0  0  0  0
  -11.1289    0.1047   24.8024 C   0  0  0  0  0  0  0  0  0  0  0  0
   -9.3974    0.9536   23.3578 C   0  0  0  0  0  0  0  0  0  0  0  0
  -10.0273    0.6503   22.1888 C   0  0  0  0  0  0  0  0  0  0  0  0
  -11.8155   -0.2188   23.5663 C   0  0  0  0  0  0  0  0  0  0  0  0
  -11.2692    0.0658   22.3006 C   0  0  0  0  0  0  0  0  0  0  0  0
  4  7  1  0
  7  8  1  0
  7  9  1  0
  7 10  1  0
  3 11  1  0
 11 18  1  0
 11 12  1  0
 12 13  2  0
 13 14  1  0
 14 15  2  0
 15 16  1  0
 16 17  2  0
 17 12  1  0
 18 19  2  0
 19 22  1  0
 22 23  2  0
 23 21  1  0
 21 20  2  0
 20 18  1  0
  1  2  2  0
  2  3  1  0
  3  6  2  0
  6  5  1  0
  5  4  2  0
  4  1  1  0
M  END
$$$$
