No_9468-complexes_sdf/6BKW-FPZ/2024-09-17-14-21-01/
     RDKit          3D

 18 19  0  0  0  0  0  0  0  0999 V2000
   -7.2496    3.8871   27.4508 C   0  0  0  0  0  0  0  0  0  0  0  0
   -8.5096    4.0291   27.2770 C   0  0  0  0  0  0  0  0  0  0  0  0
   -9.2669    5.1645   27.5845 C   0  0  2  0  0  0  0  0  0  0  0  0
  -10.6621    5.2321   27.4284 C   0  0  0  0  0  0  0  0  0  0  0  0
   -9.4015    2.8584   27.0493 C   0  0  0  0  0  0  0  0  0  0  0  0
   -8.7012    1.6337   26.7435 C   0  0  0  0  0  0  0  0  0  0  0  0
   -6.5638    2.6268   27.3850 C   0  0  0  0  0  0  0  0  0  0  0  0
   -7.3204    1.5336   27.0236 C   0  0  0  0  0  0  0  0  0  0  0  0
   -8.5488    6.4348   26.9694 C   0  0  0  0  0  0  0  0  0  0  0  0
   -9.4303    0.4449   26.4637 C   0  0  0  0  0  0  0  0  0  0  0  0
  -10.5820    0.3563   26.2483 C   0  0  0  0  0  0  0  0  0  0  0  0
  -11.2900   -0.8651   25.8579 C   0  0  0  0  0  0  0  0  0  0  0  0
  -10.4667   -1.9569   25.6564 C   0  0  0  0  0  0  0  0  0  0  0  0
   -8.7779   -0.9197   26.1138 C   0  0  0  0  0  0  0  0  0  0  0  0
   -9.2445   -1.9511   25.7691 C   0  0  0  0  0  0  0  0  0  0  0  0
   -8.1677    7.4863   27.8342 C   0  0  0  0  0  0  0  0  0  0  0  0
   -7.4061    8.4896   26.9706 C   0  0  0  0  0  0  0  0  0  0  0  0
   -8.2617    6.2005   25.9054 O   0  0  0  0  0  0  0  0  0  0  0  0
  2  3  1  0
  3  4  1  6
  3  9  1  0
  6 10  1  0
  9 16  1  0
 16 17  2  0
  9 18  2  0
 10 11  2  0
 11 12  1  0
 12 13  2  0
 13 15  1  0
 15 14  2  0
 14 10  1  0
  1  2  2  0
  2  5  1  0
  5  6  2  0
  6  8  1  0
  8  7  2  0
  7  1  1  0
M  END
$$$$
