No_914-complexes_sdf/6BKW-FPZ/2024-09-17-14-21-01/
     RDKit          3D

 29 32  0  0  0  0  0  0  0  0999 V2000
   -7.7129    4.2099   27.0854 C   0  0  0  0  0  0  0  0  0  0  0  0
   -8.2112    3.0637   26.9225 C   0  0  0  0  0  0  0  0  0  0  0  0
   -7.5138    1.9223   27.4249 C   0  0  0  0  0  0  0  0  0  0  0  0
   -8.5309    5.4147   26.8151 C   0  0  0  0  0  0  0  0  0  0  0  0
   -9.6817    5.2393   26.1100 C   0  0  0  0  0  0  0  0  0  0  0  0
  -10.1032    3.9957   25.8534 C   0  0  0  0  0  0  0  0  0  0  0  0
   -9.4034    2.8430   26.2573 C   0  0  0  0  0  0  0  0  0  0  0  0
   -6.2445    2.0060   27.8662 N   0  0  0  0  0  0  0  0  0  0  0  0
   -7.9822    0.5803   27.3252 C   0  0  0  0  0  0  0  0  0  0  0  0
   -5.4830    0.9041   28.2114 C   0  0  0  0  0  0  0  0  0  0  0  0
   -7.3036   -0.5010   27.7869 C   0  0  0  0  0  0  0  0  0  0  0  0
   -5.9911   -0.2910   28.2174 N   0  0  0  0  0  0  0  0  0  0  0  0
   -4.1822    0.9940   28.6757 N   0  0  0  0  0  0  0  0  0  0  0  0
   -7.8875    6.9767   27.1419 Cl  0  0  0  0  0  0  0  0  0  0  0  0
  -11.3465    3.8389   25.0543 C   0  0  0  0  0  0  0  0  0  0  0  0
  -12.5146    3.6427   25.6644 C   0  0  0  0  0  0  0  0  0  0  0  0
  -13.7525    3.5431   24.9540 C   0  0  0  0  0  0  0  0  0  0  0  0
  -13.6651    3.6728   23.5377 C   0  0  0  0  0  0  0  0  0  0  0  0
  -11.4353    4.0144   23.6106 C   0  0  0  0  0  0  0  0  0  0  0  0
  -12.4867    3.9715   22.9308 C   0  0  0  0  0  0  0  0  0  0  0  0
   -7.8168   -1.6999   27.7747 N   0  0  0  0  0  0  0  0  0  0  0  0
   -8.5621   -2.2798   28.1716 C   0  0  2  0  0  0  0  0  0  0  0  0
   -9.2941   -2.1157   29.1445 C   0  0  0  0  0  0  0  0  0  0  0  0
  -10.4625   -2.8219   29.7216 C   0  0  0  0  0  0  0  0  0  0  0  0
  -11.1743   -2.4289   30.8380 C   0  0  0  0  0  0  0  0  0  0  0  0
   -8.7853   -3.7259   27.9808 C   0  0  0  0  0  0  0  0  0  0  0  0
   -8.0020   -4.2378   26.8055 C   0  0  0  0  0  0  0  0  0  0  0  0
   -7.1295   -3.4122   26.2771 C   0  0  0  0  0  0  0  0  0  0  0  0
   -6.9262   -2.0994   26.6187 C   0  0  0  0  0  0  0  0  0  0  0  0
  2  3  1  0
 10 13  1  0
  4 14  1  0
  6 15  1  0
 11 21  1  0
 21 22  1  0
 23 24  1  0
 24 25  2  0
 22 26  1  0
 26 27  1  0
 27 28  1  0
 21 29  1  0
 22 23  1  1
 28 29  1  0
 15 16  2  0
 16 17  1  0
 17 18  2  0
 18 20  1  0
 20 19  2  0
 19 15  1  0
  1  2  2  0
  2  7  1  0
  7  6  2  0
  6  5  1  0
  5  4  2  0
  4  1  1  0
  3  8  2  0
  8 10  1  0
 10 12  2  0
 12 11  1  0
 11  9  2  0
  9  3  1  0
M  END
$$$$
