No_9992-complexes_sdf/6BKW-FPZ/2024-09-17-14-21-01/
     RDKit          3D

 20 22  0  0  0  0  0  0  0  0999 V2000
   -7.9040    3.9820   27.1177 C   0  0  0  0  0  0  0  0  0  0  0  0
   -7.8663    4.8694   27.9238 C   0  0  0  0  0  0  0  0  0  0  0  0
   -9.0501    3.8017   26.2617 C   0  0  0  0  0  0  0  0  0  0  0  0
   -9.1826    2.7026   25.3575 C   0  0  0  0  0  0  0  0  0  0  0  0
   -8.6940    6.0131   27.8614 C   0  0  0  0  0  0  0  0  0  0  0  0
   -9.9755    4.8547   26.2361 C   0  0  0  0  0  0  0  0  0  0  0  0
   -9.7463    5.9398   27.0364 C   0  0  0  0  0  0  0  0  0  0  0  0
  -10.1244    1.8871   25.7330 C   0  0  0  0  0  0  0  0  0  0  0  0
  -10.1275    0.7205   25.0793 C   0  0  0  0  0  0  0  0  0  0  0  0
  -10.6687   -0.3473   25.7208 C   0  0  0  0  0  0  0  0  0  0  0  0
  -11.1602    2.0568   26.5041 C   0  0  0  0  0  0  0  0  0  0  0  0
  -11.9069    1.0660   27.1721 C   0  0  0  0  0  0  0  0  0  0  0  0
  -11.6846   -0.2206   26.6684 C   0  0  0  0  0  0  0  0  0  0  0  0
  -12.3863   -1.3822   27.2081 C   0  0  0  0  0  0  0  0  0  0  0  0
  -12.1288   -2.3998   26.9487 C   0  0  0  0  0  0  0  0  0  0  0  0
  -12.7646   -3.5758   27.5016 C   0  0  0  0  0  0  0  0  0  0  0  0
  -13.8197   -3.3410   28.4047 C   0  0  0  0  0  0  0  0  0  0  0  0
  -14.1389   -2.0904   28.7482 C   0  0  0  0  0  0  0  0  0  0  0  0
  -13.4261   -1.0164   28.2591 C   0  0  0  0  0  0  0  0  0  0  0  0
   -6.8231    2.6313   27.2593 Cl  0  0  0  0  0  0  0  0  0  0  0  0
  3  4  1  0
  4  8  1  0
 13 14  1  0
  1 20  1  0
 14 15  2  0
 15 16  1  0
 16 17  2  0
 17 18  1  0
 18 19  2  0
 19 14  1  0
  8  9  2  0
  9 10  1  0
 10 13  2  0
 13 12  1  0
 12 11  2  0
 11  8  1  0
  1  2  2  0
  2  5  1  0
  5  7  2  0
  7  6  1  0
  6  3  2  0
  3  1  1  0
M  END
$$$$
