No_9689-complexes_sdf/6BKW-FPZ/2024-09-17-14-21-01/
     RDKit          3D

 20 21  0  0  0  0  0  0  0  0999 V2000
   -7.9040    3.9820   27.1177 C   0  0  0  0  0  0  0  0  0  0  0  0
   -7.8663    4.8694   27.9238 C   0  0  0  0  0  0  0  0  0  0  0  0
   -9.0491    3.8523   26.2542 C   0  0  0  0  0  0  0  0  0  0  0  0
   -8.7661    5.9491   27.9690 C   0  0  0  0  0  0  0  0  0  0  0  0
   -9.9295    4.8502   26.2323 C   0  0  0  0  0  0  0  0  0  0  0  0
   -9.8077    5.9288   27.0933 C   0  0  0  0  0  0  0  0  0  0  0  0
   -7.0146    2.9513   27.1368 F   0  0  0  0  0  0  0  0  0  0  0  0
   -9.1015    2.7190   25.2776 C   0  0  1  0  0  0  0  0  0  0  0  0
  -10.1674    1.9611   25.5149 C   0  0  0  0  0  0  0  0  0  0  0  0
  -11.1759    2.1294   26.0423 F   0  0  0  0  0  0  0  0  0  0  0  0
  -10.1614    0.8088   24.7138 F   0  0  0  0  0  0  0  0  0  0  0  0
  -10.6419    1.0634   25.9371 F   0  0  0  0  0  0  0  0  0  0  0  0
   -9.1737    3.0046   24.0403 O   0  0  0  0  0  0  0  0  0  0  0  0
  -10.1000    2.7394   23.1033 C   0  0  0  0  0  0  0  0  0  0  0  0
  -10.4585    4.0852   22.6074 C   0  0  0  0  0  0  0  0  0  0  0  0
  -10.2003    1.7428   22.3481 C   0  0  0  0  0  0  0  0  0  0  0  0
  -10.9159    1.7374   21.1351 C   0  0  0  0  0  0  0  0  0  0  0  0
  -11.3159    4.1008   21.4836 C   0  0  0  0  0  0  0  0  0  0  0  0
  -11.4902    2.9205   20.7187 C   0  0  0  0  0  0  0  0  0  0  0  0
   -7.9232    1.9286   25.3701 O   0  0  0  0  0  0  0  0  0  0  0  0
  1  7  1  0
  3  8  1  0
  8  9  1  0
  9 10  1  0
  9 11  1  0
  9 12  1  0
  8 13  1  0
 13 14  1  0
  8 20  1  6
 14 15  2  0
 15 18  1  0
 18 19  2  0
 19 17  1  0
 17 16  2  0
 16 14  1  0
  1  2  2  0
  2  4  1  0
  4  6  2  0
  6  5  1  0
  5  3  2  0
  3  1  1  0
M  END
$$$$
