No_9613-complexes_sdf/6BKW-FPZ/2024-09-17-14-21-01/
     RDKit          3D

 30 32  0  0  0  0  0  0  0  0999 V2000
   -7.9040    3.9820   27.1177 C   0  0  0  0  0  0  0  0  0  0  0  0
   -7.8663    4.8694   27.9238 C   0  0  0  0  0  0  0  0  0  0  0  0
   -9.0501    3.8017   26.2617 C   0  0  0  0  0  0  0  0  0  0  0  0
  -10.0189    4.7608   26.3707 C   0  0  0  0  0  0  0  0  0  0  0  0
   -8.6973    5.9722   27.8968 C   0  0  0  0  0  0  0  0  0  0  0  0
   -9.8216    5.8946   27.1241 C   0  0  0  0  0  0  0  0  0  0  0  0
   -9.1437    2.6293   25.4175 C   0  0  0  0  0  0  0  0  0  0  0  0
   -8.6170    1.4258   25.8177 C   0  0  0  0  0  0  0  0  0  0  0  0
   -8.6844    0.3194   24.9788 C   0  0  0  0  0  0  0  0  0  0  0  0
   -9.3359    0.4939   23.7289 C   0  0  0  0  0  0  0  0  0  0  0  0
   -9.8521    1.7195   23.3158 C   0  0  0  0  0  0  0  0  0  0  0  0
   -9.7240    2.7821   24.1593 C   0  0  0  0  0  0  0  0  0  0  0  0
   -9.3422   -0.7896   22.9344 C   0  0  0  0  0  0  0  0  0  0  0  0
   -9.5598   -1.7680   23.3755 C   0  0  0  0  0  0  0  0  0  0  0  0
   -8.9733   -2.0369   24.7548 C   0  0  0  0  0  0  0  0  0  0  0  0
   -8.5294   -0.9886   25.5358 C   0  0  0  0  0  0  0  0  0  0  0  0
  -10.4280    1.8930   22.0253 C   0  0  2  0  0  0  0  0  0  0  0  0
  -11.7384    2.4761   21.9939 C   0  0  0  0  0  0  0  0  0  0  0  0
   -9.8410    1.4241   20.8743 C   0  0  0  0  0  0  0  0  0  0  0  0
   -6.7181    5.1059   28.6941 F   0  0  0  0  0  0  0  0  0  0  0  0
  -12.2593    3.2040   22.5536 N   0  0  0  0  0  0  0  0  0  0  0  0
  -12.5066    1.8410   21.1093 O   0  0  0  0  0  0  0  0  0  0  0  0
  -13.6136    3.8375   22.5536 C   0  0  0  0  0  0  0  0  0  0  0  0
  -14.4866    3.3125   23.5340 C   0  0  0  0  0  0  0  0  0  0  0  0
  -14.0641    2.9489   24.7191 C   0  0  0  0  0  0  0  0  0  0  0  0
  -14.8913    2.4291   25.6763 C   0  0  0  0  0  0  0  0  0  0  0  0
  -14.4218    1.9996   26.9909 C   0  0  0  0  0  0  0  0  0  0  0  0
  -13.0311    2.1010   27.2705 C   0  0  0  0  0  0  0  0  0  0  0  0
  -12.1683    2.5128   26.2682 C   0  0  0  0  0  0  0  0  0  0  0  0
  -12.6598    2.9865   25.0739 C   0  0  0  0  0  0  0  0  0  0  0  0
  3  7  1  0
 11 17  1  0
 17 18  1  0
 17 19  1  1
  2 20  1  0
 18 21  1  0
 18 22  2  0
 21 23  1  0
 23 24  1  0
 24 25  2  3
 25 26  1  0
 26 27  2  3
 27 28  1  0
 28 29  2  3
 29 30  1  0
 10 13  2  0
 13 14  1  0
 14 15  2  0
 15 16  1  0
 16  9  2  0
  1  2  2  0
  2  5  1  0
  5  6  2  0
  6  4  1  0
  4  3  2  0
  3  1  1  0
  7  8  2  0
  8  9  1  0
  9 10  1  0
 10 11  1  0
 11 12  2  0
 12  7  1  0
M  END
$$$$
