No_9390-complexes_sdf/6BKW-FPZ/2024-09-17-14-21-01/
     RDKit          3D

 22 24  0  0  0  0  0  0  0  0999 V2000
   -7.2496    3.8871   27.4508 C   0  0  0  0  0  0  0  0  0  0  0  0
   -8.5096    4.0291   27.2770 C   0  0  0  0  0  0  0  0  0  0  0  0
   -9.2669    5.1645   27.5845 C   0  0  0  0  0  0  0  0  0  0  0  0
   -8.4566    6.3212   27.8001 C   0  0  0  0  0  0  0  0  0  0  0  0
   -6.4921    5.0197   27.7961 C   0  0  0  0  0  0  0  0  0  0  0  0
   -7.1702    6.2351   27.9936 C   0  0  0  0  0  0  0  0  0  0  0  0
   -9.1763    2.6261   27.0063 C   0  0  0  0  0  0  0  0  0  0  0  0
  -10.4090    2.4404   27.4659 C   0  0  0  0  0  0  0  0  0  0  0  0
  -11.0675    3.4296   28.3567 C   0  0  0  0  0  0  0  0  0  0  0  0
  -10.6197    4.8342   28.1600 C   0  0  0  0  0  0  0  0  0  0  0  0
  -11.0304    1.1084   27.4508 C   0  0  0  0  0  0  0  0  0  0  0  0
  -12.0192    0.9042   28.1905 F   0  0  0  0  0  0  0  0  0  0  0  0
  -11.3663    0.8900   26.1390 F   0  0  0  0  0  0  0  0  0  0  0  0
  -10.0446    0.1877   27.8003 F   0  0  0  0  0  0  0  0  0  0  0  0
   -6.3438    2.8281   27.3703 O   0  0  0  0  0  0  0  0  0  0  0  0
   -5.3026    2.6560   28.1437 C   0  0  0  0  0  0  0  0  0  0  0  0
   -4.7617    1.2693   28.0918 C   0  0  0  0  0  0  0  0  0  0  0  0
   -5.3448    0.3125   27.3888 C   0  0  0  0  0  0  0  0  0  0  0  0
   -4.8706   -1.0028   27.4111 C   0  0  0  0  0  0  0  0  0  0  0  0
   -3.6685   -1.2410   28.1418 C   0  0  0  0  0  0  0  0  0  0  0  0
   -3.0175   -0.2623   28.8625 C   0  0  0  0  0  0  0  0  0  0  0  0
   -3.5234    0.9879   28.8788 C   0  0  0  0  0  0  0  0  0  0  0  0
  8 11  1  0
 11 12  1  0
 11 13  1  0
 11 14  1  0
  1 15  1  0
 15 16  1  0
 16 17  1  0
 17 18  2  0
 18 19  1  0
 19 20  2  0
 20 21  1  0
 21 22  2  0
 22 17  1  0
  1  2  2  0
  3  4  2  0
  4  6  1  0
  6  5  2  0
  5  1  1  0
  2  3  1  0
  3 10  1  0
 10  9  2  0
  9  8  1  0
  8  7  2  0
  7  2  1  0
M  END
$$$$
