No_9022-complexes_sdf/6BKW-FPZ/2024-09-17-14-21-01/
     RDKit          3D

 26 29  0  0  0  0  0  0  0  0999 V2000
   -7.7129    4.2099   27.0854 C   0  0  0  0  0  0  0  0  0  0  0  0
   -8.9133    4.4736   27.0998 C   0  0  0  0  0  0  0  0  0  0  0  0
   -9.7937    3.7368   26.2091 C   0  0  0  0  0  0  0  0  0  0  0  0
   -6.8266    5.0441   28.0594 C   0  0  0  0  0  0  0  0  0  0  0  0
   -9.2322    2.6276   25.6126 C   0  0  0  0  0  0  0  0  0  0  0  0
   -7.9794    2.1924   25.9863 C   0  0  0  0  0  0  0  0  0  0  0  0
   -7.2411    2.9387   26.9009 C   0  0  0  0  0  0  0  0  0  0  0  0
  -10.0894    1.7793   24.7540 C   0  0  0  0  0  0  0  0  0  0  0  0
  -10.0344    0.5790   24.7192 C   0  0  0  0  0  0  0  0  0  0  0  0
  -10.0911    2.4177   23.3011 C   0  0  0  0  0  0  0  0  0  0  0  0
  -10.5302    1.6485   22.2547 C   0  0  0  0  0  0  0  0  0  0  0  0
  -10.6411   -0.2826   23.6935 C   0  0  0  0  0  0  0  0  0  0  0  0
  -10.8829    0.3281   22.4435 C   0  0  0  0  0  0  0  0  0  0  0  0
  -11.4047   -0.4487   21.3176 C   0  0  0  0  0  0  0  0  0  0  0  0
  -10.7142   -1.4045   20.8027 C   0  0  0  0  0  0  0  0  0  0  0  0
  -11.0301   -2.0344   19.6058 C   0  0  0  0  0  0  0  0  0  0  0  0
  -12.1956   -1.6176   18.9530 C   0  0  0  0  0  0  0  0  0  0  0  0
  -12.1200    0.1162   20.2926 C   0  0  0  0  0  0  0  0  0  0  0  0
  -12.7363   -0.4841   19.2872 C   0  0  0  0  0  0  0  0  0  0  0  0
  -12.6118   -2.3579   17.7191 C   0  0  0  0  0  0  0  0  0  0  0  0
  -12.2370   -3.2166   17.2293 O   0  0  0  0  0  0  0  0  0  0  0  0
  -13.7883   -1.8006   17.0768 F   0  0  0  0  0  0  0  0  0  0  0  0
   -9.2445    5.9143   27.4552 C   0  0  0  0  0  0  0  0  0  0  0  0
   -8.3656    6.9594   27.2002 C   0  0  0  0  0  0  0  0  0  0  0  0
   -7.0148    6.4898   27.7686 C   0  0  0  0  0  0  0  0  0  0  0  0
  -11.1240    4.2049   25.7944 C   0  0  0  0  0  0  0  0  0  0  0  0
  5  8  1  0
 13 14  1  0
 17 20  1  0
 20 21  2  0
 20 22  1  0
  3 26  1  0
  2 23  1  0
 23 24  2  0
 24 25  1  0
 25  4  2  0
  4  1  1  0
 14 15  2  0
 15 16  1  0
 16 17  2  0
 17 19  1  0
 19 18  2  0
 18 14  1  0
  8  9  2  0
  9 12  1  0
 12 13  2  0
 13 11  1  0
 11 10  2  0
 10  8  1  0
  1  2  1  0
  2  3  2  0
  3  5  1  0
  5  6  2  0
  6  7  1  0
  7  1  2  0
M  END
$$$$
