No_9646-complexes_sdf/6BKW-FPZ/2024-09-17-14-21-01/
     RDKit          3D

 34 37  0  0  0  0  0  0  0  0999 V2000
   -7.7129    4.2099   27.0854 C   0  0  0  0  0  0  0  0  0  0  0  0
   -8.9133    4.4736   27.0998 C   0  0  0  0  0  0  0  0  0  0  0  0
   -9.7937    3.7367   26.2091 C   0  0  0  0  0  0  0  0  0  0  0  0
   -7.2496    2.8647   26.8496 C   0  0  0  0  0  0  0  0  0  0  0  0
   -8.1891    1.9790   26.3454 C   0  0  0  0  0  0  0  0  0  0  0  0
   -9.4252    2.4603   26.0121 C   0  0  0  0  0  0  0  0  0  0  0  0
   -9.1215    6.0211   27.2510 C   0  0  0  0  0  0  0  0  0  0  0  0
  -10.0965    6.1168   28.0526 F   0  0  0  0  0  0  0  0  0  0  0  0
   -8.0797    6.5895   27.9745 F   0  0  0  0  0  0  0  0  0  0  0  0
   -9.2736    6.6739   26.1380 F   0  0  0  0  0  0  0  0  0  0  0  0
   -7.7837    0.6107   26.0932 C   0  0  0  0  0  0  0  0  0  0  0  0
   -6.9504    0.0678   26.7611 O   0  0  0  0  0  0  0  0  0  0  0  0
   -8.6017   -0.1113   25.3752 O   0  0  0  0  0  0  0  0  0  0  0  0
   -8.1954   -1.2678   24.8696 C   0  0  0  0  0  0  0  0  0  0  0  0
   -7.6768   -1.2020   23.6550 C   0  0  0  0  0  0  0  0  0  0  0  0
   -6.6835   -2.0045   23.3016 C   0  0  0  0  0  0  0  0  0  0  0  0
   -5.9618   -1.7905   22.0127 C   0  0  0  0  0  0  0  0  0  0  0  0
   -6.6742   -1.0409   21.0972 C   0  0  0  0  0  0  0  0  0  0  0  0
   -7.8184   -0.3189   21.4002 C   0  0  0  0  0  0  0  0  0  0  0  0
   -8.2738   -0.3557   22.7497 C   0  0  0  0  0  0  0  0  0  0  0  0
   -5.8572   -2.7808   24.2281 C   0  0  0  0  0  0  0  0  0  0  0  0
   -5.1925   -3.8827   23.8627 C   0  0  1  0  0  0  0  0  0  0  0  0
   -5.6832   -4.7161   23.1071 C   0  0  2  0  0  0  0  0  0  0  0  0
   -4.9351   -5.6462   22.5718 N   0  0  0  0  0  0  0  0  0  0  0  0
   -5.2940   -6.4774   21.7034 C   0  0  0  0  0  0  0  0  0  0  0  0
   -6.5381   -6.4295   21.2648 C   0  0  0  0  0  0  0  0  0  0  0  0
   -7.4212   -5.4121   21.6993 C   0  0  1  0  0  0  0  0  0  0  0  0
   -6.9728   -4.5608   22.5780 C   0  0  0  0  0  0  0  0  0  0  0  0
   -3.5025   -5.6261   23.0956 C   0  0  0  0  0  0  0  0  0  0  0  0
   -3.7605   -4.1099   24.2278 C   0  0  0  0  0  0  0  0  0  0  0  0
   -8.7103   -5.0984   21.0897 C   0  0  0  0  0  0  0  0  0  0  0  0
   -9.5843   -4.2792   21.7131 C   0  0  0  0  0  0  0  0  0  0  0  0
  -10.8137   -3.9776   21.1581 C   0  0  0  0  0  0  0  0  0  0  0  0
  -11.1323   -4.5150   19.9595 C   0  0  0  0  0  0  0  0  0  0  0  0
  2  7  1  0
  7  8  1  0
  7  9  1  0
  7 10  1  0
  5 11  1  0
 11 12  2  0
 11 13  1  0
 13 14  1  0
 14 15  1  0
 16 21  1  0
 22 21  1  6
 22 23  1  0
 23 24  1  0
 24 25  1  0
 27 26  1  6
 23 28  1  6
 27 28  1  0
 24 29  1  0
 22 30  1  0
 29 30  1  0
 27 31  1  0
 31 32  2  3
 32 33  1  0
 33 34  2  0
 26 25  1  0
 15 16  1  0
 16 17  2  0
 17 18  1  0
 18 19  2  0
 19 20  1  0
 20 15  2  0
  1  2  2  0
  2  3  1  0
  3  6  2  0
  6  5  1  0
  5  4  2  0
  4  1  1  0
M  END
$$$$
