No_9626-complexes_sdf/6BKW-FPZ/2024-09-17-14-21-01/
     RDKit          3D

 17 18  0  0  0  0  0  0  0  0999 V2000
   -7.2496    3.8871   27.4508 C   0  0  0  0  0  0  0  0  0  0  0  0
   -8.5096    4.0291   27.2770 C   0  0  0  0  0  0  0  0  0  0  0  0
   -9.3502    2.8685   26.8763 C   0  0  0  0  0  0  0  0  0  0  0  0
   -6.6288    2.5513   27.4938 C   0  0  0  0  0  0  0  0  0  0  0  0
   -7.4365    1.4714   27.2032 C   0  0  0  0  0  0  0  0  0  0  0  0
   -8.7772    1.6579   26.9338 C   0  0  0  0  0  0  0  0  0  0  0  0
   -9.1119    5.3743   27.2229 C   0  0  1  0  0  0  0  0  0  0  0  0
   -8.5784    6.4018   26.9993 C   0  0  0  0  0  0  0  0  0  0  0  0
   -7.2489    6.6411   26.7702 C   0  0  0  0  0  0  0  0  0  0  0  0
   -6.8466    8.0631   26.7581 C   0  0  0  0  0  0  0  0  0  0  0  0
   -6.8112    0.1662   27.2634 C   0  0  0  0  0  0  0  0  0  0  0  0
   -7.4578   -0.9303   27.2127 C   0  0  0  0  0  0  0  0  0  0  0  0
   -6.8695   -2.1553   27.3515 C   0  0  0  0  0  0  0  0  0  0  0  0
   -5.3735    0.0893   27.3487 C   0  0  0  0  0  0  0  0  0  0  0  0
   -4.7319   -1.1415   27.4839 C   0  0  0  0  0  0  0  0  0  0  0  0
   -5.5017   -2.2676   27.4659 C   0  0  0  0  0  0  0  0  0  0  0  0
  -10.6287    5.2727   27.3879 C   0  0  0  0  0  0  0  0  0  0  0  0
  2  7  1  0
  7  8  1  0
  8  9  2  3
  9 10  1  0
  5 11  1  0
  7 17  1  6
  1  2  2  0
  2  3  1  0
  3  6  2  0
  6  5  1  0
  5  4  2  0
  4  1  1  0
 11 12  2  0
 12 13  1  0
 13 16  2  0
 16 15  1  0
 15 14  2  0
 14 11  1  0
M  END
$$$$
