No_9269-complexes_sdf/6BKW-FPZ/2024-09-17-14-21-01/
     RDKit          3D

 20 22  0  0  0  0  0  0  0  0999 V2000
   -7.9040    3.9820   27.1177 C   0  0  0  0  0  0  0  0  0  0  0  0
   -9.0711    4.3164   27.0630 C   0  0  0  0  0  0  0  0  0  0  0  0
   -9.5182    5.5541   27.5777 C   0  0  0  0  0  0  0  0  0  0  0  0
   -6.9424    4.7983   27.8424 C   0  0  0  0  0  0  0  0  0  0  0  0
   -7.3526    5.9739   28.3909 C   0  0  0  0  0  0  0  0  0  0  0  0
   -8.6479    6.3742   28.2169 C   0  0  0  0  0  0  0  0  0  0  0  0
  -10.0793    3.4689   26.3368 C   0  0  0  0  0  0  0  0  0  0  0  0
  -10.8065    3.4472   25.6317 C   0  0  0  0  0  0  0  0  0  0  0  0
  -11.5555    2.3860   24.9819 C   0  0  0  0  0  0  0  0  0  0  0  0
  -11.1719    1.1467   25.4068 C   0  0  0  0  0  0  0  0  0  0  0  0
   -9.8486    1.8142   26.5475 C   0  0  1  0  0  0  0  0  0  0  0  0
   -8.6237    1.2561   26.1913 C   0  0  0  0  0  0  0  0  0  0  0  0
   -7.7235    1.1927   27.2885 C   0  0  0  0  0  0  0  0  0  0  0  0
   -8.3629    0.6913   25.0196 C   0  0  0  0  0  0  0  0  0  0  0  0
   -6.5267    0.3868   27.1751 C   0  0  0  0  0  0  0  0  0  0  0  0
   -7.0974   -0.0890   24.8828 C   0  0  0  0  0  0  0  0  0  0  0  0
   -5.5867    0.2599   28.3041 C   0  0  0  0  0  0  0  0  0  0  0  0
   -6.2655   -0.1967   25.9593 C   0  0  0  0  0  0  0  0  0  0  0  0
   -5.5762    0.2422   29.3722 C   0  0  0  0  0  0  0  0  0  0  0  0
   -4.3635    0.1222   30.2777 C   0  0  0  0  0  0  0  0  0  0  0  0
  2  7  1  0
  7  8  2  0
  8  9  1  0
  9 10  2  0
  7 11  1  0
 10 11  1  0
 11 12  1  6
 15 17  1  0
 17 19  2  3
 19 20  1  0
  1  2  2  0
  2  3  1  0
  3  6  2  0
  6  5  1  0
  5  4  2  0
  4  1  1  0
 12 13  2  0
 13 15  1  0
 15 18  2  0
 18 16  1  0
 16 14  2  0
 14 12  1  0
M  END
$$$$
