No_9414-complexes_sdf/6BKW-FPZ/2024-09-17-14-21-01/
     RDKit          3D

 19 20  0  0  0  0  0  0  0  0999 V2000
   -7.9040    3.9820   27.1177 C   0  0  0  0  0  0  0  0  0  0  0  0
   -7.8663    4.8694   27.9238 C   0  0  0  0  0  0  0  0  0  0  0  0
   -9.0491    3.8523   26.2542 C   0  0  0  0  0  0  0  0  0  0  0  0
   -8.7661    5.9491   27.9690 C   0  0  0  0  0  0  0  0  0  0  0  0
   -9.9295    4.8502   26.2323 C   0  0  0  0  0  0  0  0  0  0  0  0
   -9.8077    5.9288   27.0933 C   0  0  0  0  0  0  0  0  0  0  0  0
   -9.0726    2.7074   25.3087 C   0  0  0  0  0  0  0  0  0  0  0  0
   -9.9788    1.8124   25.6868 C   0  0  1  0  0  0  0  0  0  0  0  0
   -9.8886    0.6639   25.0471 C   0  0  2  0  0  0  0  0  0  0  0  0
   -8.7337    0.1710   24.6581 C   0  0  0  0  0  0  0  0  0  0  0  0
   -8.7786   -0.3405   23.3309 C   0  0  2  0  0  0  0  0  0  0  0  0
  -10.8334    0.4467   23.8604 C   0  0  0  0  0  0  0  0  0  0  0  0
   -7.7054   -0.9391   22.5731 C   0  0  0  0  0  0  0  0  0  0  0  0
   -9.7342    0.0041   22.3540 C   0  0  0  0  0  0  0  0  0  0  0  0
   -6.4090   -0.8653   23.2359 C   0  0  0  0  0  0  0  0  0  0  0  0
   -7.8390   -1.7384   21.4717 C   0  0  0  0  0  0  0  0  0  0  0  0
  -10.9090    1.7980   26.7898 C   0  0  0  0  0  0  0  0  0  0  0  0
  -11.9758    2.6151   26.8996 C   0  0  0  0  0  0  0  0  0  0  0  0
  -12.8327    2.6366   28.0645 C   0  0  0  0  0  0  0  0  0  0  0  0
  3  7  1  0
  8  7  1  1
  8  9  1  0
  9 10  1  6
 10 11  1  0
  9 12  1  0
 11 13  1  6
 11 14  1  0
 12 14  2  0
 13 15  2  0
 13 16  1  0
  8 17  1  0
 17 18  2  3
 18 19  1  0
  1  2  2  0
  2  4  1  0
  4  6  2  0
  6  5  1  0
  5  3  2  0
  3  1  1  0
M  END
$$$$
