No_9999-complexes_sdf/6BKW-FPZ/2024-09-17-14-21-01/
     RDKit          3D

 24 26  0  0  0  0  0  0  0  0999 V2000
   -7.7129    4.2099   27.0854 C   0  0  0  0  0  0  0  0  0  0  0  0
   -8.2112    3.0637   26.9225 C   0  0  0  0  0  0  0  0  0  0  0  0
   -7.0021    4.5281   28.2396 C   0  0  0  0  0  0  0  0  0  0  0  0
   -7.5497    1.9016   27.4549 C   0  0  0  0  0  0  0  0  0  0  0  0
   -6.3677    2.2142   28.2276 C   0  0  0  0  0  0  0  0  0  0  0  0
   -6.0061    3.5229   28.4663 C   0  0  0  0  0  0  0  0  0  0  0  0
   -9.3619    2.7867   26.0482 C   0  0  0  0  0  0  0  0  0  0  0  0
  -10.5189    3.8451   25.6568 Cl  0  0  0  0  0  0  0  0  0  0  0  0
   -9.5428    1.4468   25.4522 C   0  0  0  0  0  0  0  0  0  0  0  0
  -10.1355    1.4183   24.2786 C   0  0  0  0  0  0  0  0  0  0  0  0
  -11.1326    1.9913   23.8783 C   0  0  0  0  0  0  0  0  0  0  0  0
  -11.6268    1.7076   22.5943 C   0  0  0  0  0  0  0  0  0  0  0  0
  -10.9931    0.7114   21.7983 C   0  0  0  0  0  0  0  0  0  0  0  0
   -9.8659    0.0561   22.2551 C   0  0  0  0  0  0  0  0  0  0  0  0
   -9.3706    0.3258   23.4774 C   0  0  0  0  0  0  0  0  0  0  0  0
   -5.3324    0.8760   28.6145 Cl  0  0  0  0  0  0  0  0  0  0  0  0
   -8.2514   -0.3037   23.9158 N   0  0  0  0  0  0  0  0  0  0  0  0
   -7.0533   -0.1230   23.4599 C   0  0  0  0  0  0  0  0  0  0  0  0
   -8.6089   -1.7044   24.2777 C   0  0  0  0  0  0  0  0  0  0  0  0
   -7.9461   -2.2808   25.0655 C   0  0  0  0  0  0  0  0  0  0  0  0
   -8.3264   -3.5199   25.6193 C   0  0  0  0  0  0  0  0  0  0  0  0
   -9.4554   -4.0871   25.1149 C   0  0  0  0  0  0  0  0  0  0  0  0
  -10.2285   -3.4048   24.1972 C   0  0  0  0  0  0  0  0  0  0  0  0
   -9.8329   -2.1301   23.8614 C   0  0  0  0  0  0  0  0  0  0  0  0
  2  7  1  0
  7  8  1  0
  7  9  1  0
  9 10  1  0
  5 16  1  0
 15 17  1  0
 17 18  1  0
 17 19  1  0
  1  2  2  0
  2  4  1  0
  4  5  2  0
  5  6  1  0
  6  3  2  0
  3  1  1  0
 10 11  2  0
 11 12  1  0
 12 13  2  0
 13 14  1  0
 14 15  2  0
 15 10  1  0
 19 20  2  0
 20 21  1  0
 21 22  2  0
 22 23  1  0
 23 24  2  0
 24 19  1  0
M  END
$$$$
