No_9344-complexes_sdf/6BKW-FPZ/2024-09-17-14-21-01/
     RDKit          3D

 34 38  0  0  0  0  0  0  0  0999 V2000
   -7.9040    3.9820   27.1177 C   0  0  0  0  0  0  0  0  0  0  0  0
   -7.8663    4.8694   27.9238 C   0  0  0  0  0  0  0  0  0  0  0  0
   -9.0501    3.8017   26.2617 C   0  0  0  0  0  0  0  0  0  0  0  0
   -9.1826    2.7026   25.3575 C   0  0  0  0  0  0  0  0  0  0  0  0
   -8.6940    6.0131   27.8614 C   0  0  0  0  0  0  0  0  0  0  0  0
   -9.9755    4.8547   26.2361 C   0  0  0  0  0  0  0  0  0  0  0  0
   -9.7463    5.9398   27.0364 C   0  0  0  0  0  0  0  0  0  0  0  0
  -10.1245    1.8871   25.7330 C   0  0  0  0  0  0  0  0  0  0  0  0
  -10.9673    1.8017   26.4038 C   0  0  0  0  0  0  0  0  0  0  0  0
  -11.8491    0.5927   26.7014 C   0  0  0  0  0  0  0  0  0  0  0  0
  -11.5606   -0.4710   25.9181 C   0  0  0  0  0  0  0  0  0  0  0  0
   -9.9824    0.4680   24.9416 C   0  0  0  0  0  0  0  0  0  0  0  0
  -10.6948   -0.5304   25.0700 C   0  0  0  0  0  0  0  0  0  0  0  0
   -8.8239    0.5000   23.8119 C   0  0  1  0  0  0  0  0  0  0  0  0
   -7.7039   -0.2453   24.0752 C   0  0  0  0  0  0  0  0  0  0  0  0
   -7.4217   -0.8608   25.3226 C   0  0  0  0  0  0  0  0  0  0  0  0
   -6.5547   -1.2267   25.6860 C   0  0  0  0  0  0  0  0  0  0  0  0
   -5.4081   -1.4422   24.6503 C   0  0  0  0  0  0  0  0  0  0  0  0
   -5.6206   -0.9506   23.4205 C   0  0  0  0  0  0  0  0  0  0  0  0
   -6.7694   -0.2869   23.0987 C   0  0  0  0  0  0  0  0  0  0  0  0
   -9.5344    0.2753   22.5204 C   0  0  1  0  0  0  0  0  0  0  0  0
  -10.7955    0.6721   22.3123 C   0  0  0  0  0  0  0  0  0  0  0  0
  -11.0395    1.9273   22.1731 C   0  0  0  0  0  0  0  0  0  0  0  0
  -12.0795    2.5576   21.8790 C   0  0  0  0  0  0  0  0  0  0  0  0
  -13.2742    1.7969   21.7647 C   0  0  0  0  0  0  0  0  0  0  0  0
  -13.1317    0.4066   21.8083 C   0  0  0  0  0  0  0  0  0  0  0  0
  -11.9192   -0.1690   22.1017 C   0  0  0  0  0  0  0  0  0  0  0  0
   -8.6657    0.6255   21.3371 C   0  0  0  0  0  0  0  0  0  0  0  0
   -9.5667   -1.4349   22.4693 C   0  0  0  0  0  0  0  0  0  0  0  0
  -10.1192   -2.0743   21.4163 C   0  0  0  0  0  0  0  0  0  0  0  0
  -11.5818   -1.6425   21.6739 C   0  0  2  0  0  0  0  0  0  0  0  0
  -12.6710   -2.4795   21.4223 C   0  0  0  0  0  0  0  0  0  0  0  0
  -13.2131   -2.6682   20.4035 C   0  0  0  0  0  0  0  0  0  0  0  0
  -14.3289   -3.5662   20.2200 C   0  0  0  0  0  0  0  0  0  0  0  0
  3  4  1  0
  4  8  1  0
 14 12  1  1
 14 21  1  0
 21 22  1  0
 21 28  1  6
 21 29  1  0
 27 31  1  0
 31 30  1  6
 31 32  1  0
 32 33  2  3
 33 34  1  0
 14 15  1  0
 30 29  1  0
 15 16  2  0
 16 17  1  0
 17 18  2  0
 18 19  1  0
 19 20  2  0
 20 15  1  0
 22 23  2  0
 23 24  1  0
 24 25  2  0
 25 26  1  0
 26 27  2  0
 27 22  1  0
  1  2  2  0
  2  5  1  0
  5  7  2  0
  7  6  1  0
  6  3  2  0
  3  1  1  0
  8  9  2  0
  9 10  1  0
 10 11  2  0
 11 13  1  0
 13 12  2  0
 12  8  1  0
M  END
$$$$
