No_9502-complexes_sdf/6BKW-FPZ/2024-09-17-14-21-01/
     RDKit          3D

 19 21  0  0  0  0  0  0  0  0999 V2000
   -7.7129    4.2099   27.0854 C   0  0  0  0  0  0  0  0  0  0  0  0
   -8.9133    4.4736   27.0998 C   0  0  0  0  0  0  0  0  0  0  0  0
   -9.7135    3.9633   26.0300 C   0  0  0  0  0  0  0  0  0  0  0  0
   -7.2726    3.1259   27.1802 C   0  0  0  0  0  0  0  0  0  0  0  0
   -8.0645    2.0767   26.4520 C   0  0  0  0  0  0  0  0  0  0  0  0
   -9.2637    2.5587   25.9425 C   0  0  0  0  0  0  0  0  0  0  0  0
   -5.7598    2.5246   27.7923 Cl  0  0  0  0  0  0  0  0  0  0  0  0
  -10.0752    1.5559   25.1971 C   0  0  0  0  0  0  0  0  0  0  0  0
   -9.6058    0.5208   24.8656 C   0  0  0  0  0  0  0  0  0  0  0  0
   -8.3378    0.0357   25.4974 C   0  0  0  0  0  0  0  0  0  0  0  0
   -7.5892    0.8145   26.2418 C   0  0  0  0  0  0  0  0  0  0  0  0
   -9.4850    5.9232   27.5110 C   0  0  0  0  0  0  0  0  0  0  0  0
  -10.3253   -0.5037   24.0608 C   0  0  0  0  0  0  0  0  0  0  0  0
   -9.9112   -0.9383   22.9965 C   0  0  0  0  0  0  0  0  0  0  0  0
   -8.6549   -0.4655   22.4391 C   0  0  0  0  0  0  0  0  0  0  0  0
   -8.1188   -1.0874   21.2143 C   0  0  0  0  0  0  0  0  0  0  0  0
   -8.8851   -2.0367   20.5154 C   0  0  0  0  0  0  0  0  0  0  0  0
  -10.1163   -2.4236   21.0210 C   0  0  0  0  0  0  0  0  0  0  0  0
  -10.5699   -1.9094   22.1882 C   0  0  0  0  0  0  0  0  0  0  0  0
  4  7  1  0
  2 12  1  0
  9 13  1  0
 13 14  1  0
  6  8  1  0
  8  9  2  0
  9 10  1  0
 10 11  2  0
 11  5  1  0
 14 15  2  0
 15 16  1  0
 16 17  2  0
 17 18  1  0
 18 19  2  0
 19 14  1  0
  1  2  2  0
  2  3  1  0
  3  6  2  0
  6  5  1  0
  5  4  2  0
  4  1  1  0
M  END
$$$$
