No_9348-complexes_sdf/6BKW-FPZ/2024-09-17-14-21-01/
     RDKit          3D

 14 15  0  0  0  0  0  0  0  0999 V2000
   -7.7129    4.2099   27.0854 C   0  0  0  0  0  0  0  0  0  0  0  0
   -8.9133    4.4736   27.0998 C   0  0  0  0  0  0  0  0  0  0  0  0
   -9.7937    3.7367   26.2091 C   0  0  0  0  0  0  0  0  0  0  0  0
   -7.2496    2.8647   26.8496 C   0  0  0  0  0  0  0  0  0  0  0  0
   -8.1891    1.9790   26.3454 C   0  0  0  0  0  0  0  0  0  0  0  0
  -11.0808    4.1954   25.9087 C   0  0  0  0  0  0  0  0  0  0  0  0
   -9.4405    2.4420   25.9289 C   0  0  0  0  0  0  0  0  0  0  0  0
  -12.1072    4.0840   26.8379 C   0  0  0  0  0  0  0  0  0  0  0  0
  -11.8389    4.3009   28.1712 C   0  0  0  0  0  0  0  0  0  0  0  0
  -12.8695    4.0937   29.1629 C   0  0  0  0  0  0  0  0  0  0  0  0
  -14.1993    4.0291   28.7786 C   0  0  0  0  0  0  0  0  0  0  0  0
  -13.4589    3.9375   26.4563 C   0  0  0  0  0  0  0  0  0  0  0  0
  -14.4611    3.9073   27.4031 C   0  0  0  0  0  0  0  0  0  0  0  0
   -6.7632    5.0215   28.0415 C   0  0  0  0  0  0  0  0  0  0  0  0
  3  6  1  0
  6  8  1  0
  1 14  1  0
  1  2  2  0
  2  3  1  0
  3  7  2  0
  7  5  1  0
  5  4  2  0
  4  1  1  0
  8  9  2  0
  9 10  1  0
 10 11  2  0
 11 13  1  0
 13 12  2  0
 12  8  1  0
M  END
$$$$
