No_9476-complexes_sdf/6BKW-FPZ/2024-09-17-14-21-01/
     RDKit          3D

 15 16  0  0  0  0  0  0  0  0999 V2000
   -7.7129    4.2099   27.0854 C   0  0  0  0  0  0  0  0  0  0  0  0
   -8.2112    3.0637   26.9225 C   0  0  0  0  0  0  0  0  0  0  0  0
   -9.4446    2.8304   26.1868 C   0  0  0  0  0  0  0  0  0  0  0  0
   -8.4697    5.3956   26.7238 C   0  0  0  0  0  0  0  0  0  0  0  0
   -9.6172    5.2111   25.9513 C   0  0  0  0  0  0  0  0  0  0  0  0
  -10.0424    3.9782   25.6873 C   0  0  0  0  0  0  0  0  0  0  0  0
   -7.7142    1.7268   27.3793 C   0  0  0  0  0  0  0  0  0  0  0  0
   -8.2761    0.5214   27.2744 C   0  0  0  0  0  0  0  0  0  0  0  0
   -7.6932   -0.5695   27.7610 C   0  0  0  0  0  0  0  0  0  0  0  0
   -6.3582   -0.5579   28.1912 C   0  0  0  0  0  0  0  0  0  0  0  0
   -5.6381    0.6651   28.1633 C   0  0  0  0  0  0  0  0  0  0  0  0
   -6.2389    1.7776   27.7518 C   0  0  0  0  0  0  0  0  0  0  0  0
   -4.2214    0.6990   28.6090 C   0  0  0  0  0  0  0  0  0  0  0  0
   -3.4248    1.3116   28.0114 O   0  0  0  0  0  0  0  0  0  0  0  0
   -3.8479   -0.2605   29.5826 O   0  0  0  0  0  0  0  0  0  0  0  0
  2  7  1  0
 11 13  1  0
 13 14  2  0
 13 15  1  0
  1  2  2  0
  2  3  1  0
  3  6  2  0
  6  5  1  0
  5  4  2  0
  4  1  1  0
  7  8  2  0
  8  9  1  0
  9 10  2  0
 10 11  1  0
 11 12  2  0
 12  7  1  0
M  END
$$$$
