No_9862-complexes_sdf/6BKW-FPZ/2024-09-17-14-21-01/
     RDKit          3D

 33 36  0  0  0  0  0  0  0  0999 V2000
   -7.2496    3.8871   27.4508 C   0  0  0  0  0  0  0  0  0  0  0  0
   -7.6161    2.7143   27.1523 C   0  0  0  0  0  0  0  0  0  0  0  0
   -8.6212    2.2239   26.4074 C   0  0  0  0  0  0  0  0  0  0  0  0
   -8.2540    4.9237   27.1711 C   0  0  0  0  0  0  0  0  0  0  0  0
   -9.3729    4.5806   26.4433 C   0  0  0  0  0  0  0  0  0  0  0  0
   -9.5830    3.2969   26.1026 C   0  0  0  0  0  0  0  0  0  0  0  0
   -7.9303    6.3207   27.5389 C   0  0  0  0  0  0  0  0  0  0  0  0
   -7.6115    6.9675   26.7830 F   0  0  0  0  0  0  0  0  0  0  0  0
   -8.8937    0.8761   26.0625 C   0  0  0  0  0  0  0  0  0  0  0  0
   -9.2754    0.5279   24.9603 C   0  0  0  0  0  0  0  0  0  0  0  0
   -9.4633   -0.8686   24.5729 C   0  0  0  0  0  0  0  0  0  0  0  0
   -9.1659   -1.8237   25.5094 C   0  0  0  0  0  0  0  0  0  0  0  0
   -8.5075   -0.2590   27.0015 C   0  0  0  0  0  0  0  0  0  0  0  0
   -8.6967   -1.4680   26.7821 C   0  0  0  0  0  0  0  0  0  0  0  0
   -6.8436    6.2731   28.5691 F   0  0  0  0  0  0  0  0  0  0  0  0
   -9.0700    6.7482   28.1870 F   0  0  0  0  0  0  0  0  0  0  0  0
   -9.3482   -3.0469   24.9944 F   0  0  0  0  0  0  0  0  0  0  0  0
   -8.5200   -2.3735   27.9258 C   0  0  0  0  0  0  0  0  0  0  0  0
   -7.3204   -2.4296   28.5783 C   0  0  0  0  0  0  0  0  0  0  0  0
   -7.2497   -3.0071   29.8865 C   0  0  0  0  0  0  0  0  0  0  0  0
   -8.4266   -3.6643   30.3519 C   0  0  0  0  0  0  0  0  0  0  0  0
   -9.5996   -3.5887   29.7246 C   0  0  0  0  0  0  0  0  0  0  0  0
   -9.7192   -2.8528   28.5606 C   0  0  0  0  0  0  0  0  0  0  0  0
   -6.1093   -1.8001   28.1130 C   0  0  0  0  0  0  0  0  0  0  0  0
   -5.3234   -2.6244   27.3918 C   0  0  0  0  0  0  0  0  0  0  0  0
   -4.1423   -2.0390   26.7833 C   0  0  0  0  0  0  0  0  0  0  0  0
   -3.7862   -0.6951   26.9719 C   0  0  0  0  0  0  0  0  0  0  0  0
   -4.6804    0.0823   27.8009 C   0  0  0  0  0  0  0  0  0  0  0  0
   -5.8290   -0.4853   28.3733 C   0  0  0  0  0  0  0  0  0  0  0  0
   -4.2852    1.5028   28.1124 C   0  0  0  0  0  0  0  0  0  0  0  0
   -5.9890   -3.1349   30.6099 C   0  0  0  0  0  0  0  0  0  0  0  0
   -5.4140   -4.4136   30.6125 C   0  0  0  0  0  0  0  0  0  0  0  0
   -4.1606   -4.4658   31.1801 C   0  0  0  0  0  0  0  0  0  0  0  0
  4  7  1  0
  7  8  1  0
  3  9  1  0
  7 15  1  0
  7 16  1  0
 12 17  1  0
 14 18  1  0
 19 24  1  0
 28 30  1  0
 20 31  1  0
 31 32  2  3
 32 33  1  0
 18 19  1  0
 19 20  2  0
 20 21  1  0
 21 22  2  0
 22 23  1  0
 23 18  2  0
 24 25  2  0
 25 26  1  0
 26 27  2  0
 27 28  1  0
 28 29  2  0
 29 24  1  0
  1  2  2  0
  2  3  1  0
  3  6  2  0
  6  5  1  0
  5  4  2  0
  4  1  1  0
  9 10  2  0
 10 11  1  0
 11 12  2  0
 12 14  1  0
 14 13  2  0
 13  9  1  0
M  END
$$$$
