No_9687-complexes_sdf/6BKW-FPZ/2024-09-17-14-21-01/
     RDKit          3D

 36 40  0  0  0  0  0  0  0  0999 V2000
   -7.2496    3.8871   27.4508 C   0  0  0  0  0  0  0  0  0  0  0  0
   -7.6161    2.7143   27.1523 C   0  0  0  0  0  0  0  0  0  0  0  0
   -8.8302    2.4659   26.5056 C   0  0  0  0  0  0  0  0  0  0  0  0
   -8.1584    5.0090   27.3234 C   0  0  0  0  0  0  0  0  0  0  0  0
   -9.3788    4.7965   26.7695 C   0  0  0  0  0  0  0  0  0  0  0  0
   -9.7028    3.5649   26.3276 C   0  0  0  0  0  0  0  0  0  0  0  0
   -6.9181    1.4461   27.3185 C   0  0  0  0  0  0  0  0  0  0  0  0
   -7.3229    0.1920   27.1907 C   0  0  0  0  0  0  0  0  0  0  0  0
   -8.6622    0.1161   26.6357 C   0  0  0  0  0  0  0  0  0  0  0  0
   -9.4033    1.2061   26.2798 C   0  0  0  0  0  0  0  0  0  0  0  0
   -7.6706    6.3471   27.7906 C   0  0  0  0  0  0  0  0  0  0  0  0
   -8.4018    7.4136   27.2846 N   0  0  0  0  0  0  0  0  0  0  0  0
   -6.5470   -0.9395   27.5217 C   0  0  0  0  0  0  0  0  0  0  0  0
   -5.2425   -0.7505   27.8421 C   0  0  0  0  0  0  0  0  0  0  0  0
   -4.7560    0.6286   28.0189 C   0  0  0  0  0  0  0  0  0  0  0  0
   -5.5020    1.6538   27.8545 C   0  0  0  0  0  0  0  0  0  0  0  0
   -3.3496    0.8035   28.5552 C   0  0  0  0  0  0  0  0  0  0  0  0
   -2.9514    1.8257   28.5265 F   0  0  0  0  0  0  0  0  0  0  0  0
   -3.2340    0.3688   29.8879 F   0  0  0  0  0  0  0  0  0  0  0  0
   -2.5269   -0.0290   27.8318 F   0  0  0  0  0  0  0  0  0  0  0  0
  -10.9886    3.4476   25.6170 C   0  0  0  0  0  0  0  0  0  0  0  0
  -12.1334    3.4011   26.2606 C   0  0  0  0  0  0  0  0  0  0  0  0
  -10.9921    3.3317   24.1983 C   0  0  0  0  0  0  0  0  0  0  0  0
  -12.1317    3.3367   23.4596 C   0  0  0  0  0  0  0  0  0  0  0  0
  -13.3727    3.4382   25.5866 C   0  0  0  0  0  0  0  0  0  0  0  0
  -13.3418    3.4167   24.1627 C   0  0  0  0  0  0  0  0  0  0  0  0
  -12.0846    3.3066   22.0314 C   0  0  0  0  0  0  0  0  0  0  0  0
  -10.9027    3.7260   21.5297 C   0  0  0  0  0  0  0  0  0  0  0  0
  -10.5530    3.5246   20.2844 C   0  0  0  0  0  0  0  0  0  0  0  0
  -11.4017    2.8323   19.4304 C   0  0  0  0  0  0  0  0  0  0  0  0
  -12.6611    2.4519   19.9077 C   0  0  0  0  0  0  0  0  0  0  0  0
  -12.9966    2.6640   21.2416 C   0  0  0  0  0  0  0  0  0  0  0  0
   -8.9185   -1.1480   25.9260 C   0  0  0  0  0  0  0  0  0  0  0  0
  -10.0683   -1.5090   26.3609 F   0  0  0  0  0  0  0  0  0  0  0  0
   -8.0432   -2.0430   26.3212 F   0  0  0  0  0  0  0  0  0  0  0  0
   -8.8955   -0.9658   24.6364 F   0  0  0  0  0  0  0  0  0  0  0  0
  4 11  1  0
 11 12  2  0
 15 17  1  0
 17 18  1  0
 17 19  1  0
 17 20  1  0
  6 21  1  0
 24 27  1  0
  9 33  1  0
 33 34  1  0
 33 35  1  0
 33 36  1  0
  1  2  2  0
  3  6  2  0
  6  5  1  0
  5  4  2  0
  4  1  1  0
  8 13  2  0
 13 14  1  0
 14 15  2  0
 15 16  1  0
 16  7  2  0
  2  3  1  0
  3 10  1  0
 10  9  2  0
  9  8  1  0
  8  7  1  0
  7  2  1  0
 27 28  2  0
 28 29  1  0
 29 30  2  0
 30 31  1  0
 31 32  2  0
 32 27  1  0
 21 22  2  0
 22 25  1  0
 25 26  2  0
 26 24  1  0
 24 23  2  0
 23 21  1  0
M  END
$$$$
