No_9844-complexes_sdf/6BKW-FPZ/2024-09-17-14-21-01/
     RDKit          3D

 18 20  0  0  0  0  0  0  0  0999 V2000
   -7.9040    3.9820   27.1177 C   0  0  0  0  0  0  0  0  0  0  0  0
   -7.8663    4.8694   27.9238 C   0  0  0  0  0  0  0  0  0  0  0  0
   -9.0491    3.8523   26.2542 C   0  0  0  0  0  0  0  0  0  0  0  0
   -8.7661    5.9491   27.9690 C   0  0  0  0  0  0  0  0  0  0  0  0
   -9.9279    4.8544   26.1938 C   0  0  0  0  0  0  0  0  0  0  0  0
   -9.8044    5.9413   27.0782 C   0  0  0  0  0  0  0  0  0  0  0  0
   -7.0257    2.8867   27.1969 N   0  0  0  0  0  0  0  0  0  0  0  0
   -5.9683    2.9578   27.9777 C   0  0  0  0  0  0  0  0  0  0  0  0
   -7.5821    1.5216   27.1115 C   0  0  0  0  0  0  0  0  0  0  0  0
   -5.1288    1.8202   28.0770 N   0  0  0  0  0  0  0  0  0  0  0  0
   -6.6994    0.6961   27.1416 C   0  0  0  0  0  0  0  0  0  0  0  0
   -5.4727    0.7195   27.7952 C   0  0  1  0  0  0  0  0  0  0  0  0
   -4.5909   -0.4008   28.0193 C   0  0  0  0  0  0  0  0  0  0  0  0
   -3.6452   -0.4062   28.8156 C   0  0  0  0  0  0  0  0  0  0  0  0
   -2.7404   -1.4935   29.1443 C   0  0  0  0  0  0  0  0  0  0  0  0
   -3.0555   -2.6718   28.5347 C   0  0  0  0  0  0  0  0  0  0  0  0
   -4.6045   -1.7724   27.6008 C   0  0  0  0  0  0  0  0  0  0  0  0
   -3.9601   -2.7830   27.7316 C   0  0  0  0  0  0  0  0  0  0  0  0
  1  7  1  0
  7  8  1  0
  7  9  1  0
  8 10  1  0
 10 12  1  0
 11 12  1  0
 12 13  1  6
 11  9  1  0
  1  2  2  0
  2  4  1  0
  4  6  2  0
  6  5  1  0
  5  3  2  0
  3  1  1  0
 13 14  2  0
 14 15  1  0
 15 16  2  0
 16 18  1  0
 18 17  2  0
 17 13  1  0
M  END
$$$$
