No_9393-complexes_sdf/6BKW-FPZ/2024-09-17-14-21-01/
     RDKit          3D

 17 18  0  0  0  0  0  0  0  0999 V2000
   -7.9040    3.9820   27.1177 C   0  0  0  0  0  0  0  0  0  0  0  0
   -7.8663    4.8694   27.9238 C   0  0  0  0  0  0  0  0  0  0  0  0
   -9.0501    3.8017   26.2617 C   0  0  0  0  0  0  0  0  0  0  0  0
   -9.1826    2.7026   25.3575 C   0  0  0  0  0  0  0  0  0  0  0  0
   -8.6241    6.0053   27.5974 C   0  0  0  0  0  0  0  0  0  0  0  0
   -9.6577    6.0523   26.7101 C   0  0  0  0  0  0  0  0  0  0  0  0
   -9.7428    4.9359   25.9518 C   0  0  0  0  0  0  0  0  0  0  0  0
   -8.7007    1.4549   25.8151 C   0  0  0  0  0  0  0  0  0  0  0  0
   -8.8433    0.3264   24.9991 C   0  0  0  0  0  0  0  0  0  0  0  0
   -9.4608    0.4871   23.7744 C   0  0  0  0  0  0  0  0  0  0  0  0
   -9.7692    2.6935   24.1264 C   0  0  0  0  0  0  0  0  0  0  0  0
   -9.8942    1.6689   23.3390 C   0  0  0  0  0  0  0  0  0  0  0  0
  -10.5297    1.7755   21.9936 C   0  0  0  0  0  0  0  0  0  0  0  0
  -10.5060    3.0017   21.4502 C   0  0  0  0  0  0  0  0  0  0  0  0
  -11.8520    1.1954   21.9829 C   0  0  0  0  0  0  0  0  0  0  0  0
   -9.5979    0.8305   21.0358 C   0  0  0  0  0  0  0  0  0  0  0  0
  -12.2078    0.0969   22.1611 C   0  0  0  0  0  0  0  0  0  0  0  0
  3  4  1  0
 12 13  1  0
 13 14  1  0
 13 15  1  0
 13 16  1  0
 15 17  2  0
  4  8  2  0
  8  9  1  0
  9 10  2  0
 10 12  1  0
 12 11  2  0
 11  4  1  0
  1  2  2  0
  2  5  1  0
  5  6  2  0
  6  7  1  0
  7  3  2  0
  3  1  1  0
M  END
$$$$
