No_9885-complexes_sdf/6BKW-FPZ/2024-09-17-14-21-01/
     RDKit          3D

 16 17  0  0  0  0  0  0  0  0999 V2000
   -7.9040    3.9820   27.1177 C   0  0  0  0  0  0  0  0  0  0  0  0
   -7.8663    4.8694   27.9238 C   0  0  0  0  0  0  0  0  0  0  0  0
   -7.4547    2.7080   27.4594 C   0  0  0  0  0  0  0  0  0  0  0  0
   -8.0927    6.2909   27.5184 C   0  0  0  0  0  0  0  0  0  0  0  0
   -8.9150    6.5640   26.4331 C   0  0  0  0  0  0  0  0  0  0  0  0
   -7.6563    1.4669   26.7412 C   0  0  0  0  0  0  0  0  0  0  0  0
   -8.5793    4.1114   25.8767 C   0  0  0  0  0  0  0  0  0  0  0  0
   -9.1703    5.4223   25.5679 C   0  0  0  0  0  0  0  0  0  0  0  0
   -6.9804    0.3444   27.0085 C   0  0  0  0  0  0  0  0  0  0  0  0
   -5.8753    0.3862   27.8479 C   0  0  0  0  0  0  0  0  0  0  0  0
   -5.4136    1.6632   28.3556 C   0  0  0  0  0  0  0  0  0  0  0  0
   -6.0414    2.7540   28.0376 C   0  0  0  0  0  0  0  0  0  0  0  0
   -5.0959   -0.8245   28.1407 C   0  0  0  0  0  0  0  0  0  0  0  0
   -5.6472   -1.4104   28.7923 F   0  0  0  0  0  0  0  0  0  0  0  0
   -3.9471   -0.4044   28.7755 F   0  0  0  0  0  0  0  0  0  0  0  0
   -4.7128   -1.4173   27.0018 F   0  0  0  0  0  0  0  0  0  0  0  0
  1  3  1  0
 10 13  1  0
 13 14  1  0
 13 15  1  0
 13 16  1  0
  1  2  2  0
  2  4  1  0
  4  5  2  0
  5  8  1  0
  8  7  2  0
  7  1  1  0
  3  6  2  0
  6  9  1  0
  9 10  2  0
 10 11  1  0
 11 12  2  0
 12  3  1  0
M  END
$$$$
