No_9770-complexes_sdf/6BKW-FPZ/2024-09-17-14-21-01/
     RDKit          3D

 22 26  0  0  0  0  0  0  0  0999 V2000
   -7.7129    4.2099   27.0854 C   0  0  0  0  0  0  0  0  0  0  0  0
   -8.2112    3.0637   26.9225 C   0  0  0  0  0  0  0  0  0  0  0  0
   -7.0021    4.5281   28.2396 C   0  0  0  0  0  0  0  0  0  0  0  0
   -9.4237    2.7810   26.2714 C   0  0  0  0  0  0  0  0  0  0  0  0
   -9.8781    3.7859   25.4663 C   0  0  0  0  0  0  0  0  0  0  0  0
   -9.3689    5.0975   25.5965 C   0  0  0  0  0  0  0  0  0  0  0  0
   -8.4784    5.3402   26.5448 C   0  0  0  0  0  0  0  0  0  0  0  0
  -10.9887    3.5347   24.5135 C   0  0  0  0  0  0  0  0  0  0  0  0
  -12.1661    3.1796   24.9300 C   0  0  0  0  0  0  0  0  0  0  0  0
  -10.7171    3.7169   23.1270 C   0  0  0  0  0  0  0  0  0  0  0  0
  -11.3608    3.5180   22.3067 C   0  0  0  0  0  0  0  0  0  0  0  0
  -12.5299    2.9938   26.2693 C   0  0  0  0  0  0  0  0  0  0  0  0
  -13.8422    2.6611   26.6636 C   0  0  0  0  0  0  0  0  0  0  0  0
  -12.7944    3.1424   22.5646 C   0  0  0  0  0  0  0  0  0  0  0  0
  -13.1688    3.0265   23.8849 C   0  0  0  0  0  0  0  0  0  0  0  0
  -14.1161    2.5126   28.0162 C   0  0  0  0  0  0  0  0  0  0  0  0
  -13.1043    2.6985   29.0246 C   0  0  0  0  0  0  0  0  0  0  0  0
  -11.9409    3.1008   28.5871 C   0  0  0  0  0  0  0  0  0  0  0  0
  -11.5914    3.2648   27.3905 C   0  0  0  0  0  0  0  0  0  0  0  0
  -10.2093    3.3828   27.2504 N   0  0  0  0  0  0  0  0  0  0  0  0
   -9.8492    3.8637   28.4151 N   0  0  0  0  0  0  0  0  0  0  0  0
   -8.6432    4.4477   28.7413 C   0  0  0  0  0  0  0  0  0  0  0  0
  5  8  1  0
  9 12  1  0
  4 20  1  0
 19 20  1  0
 20 21  1  0
  3 22  1  0
 21 22  2  0
  3  1  1  0
  8  9  2  0
  9 15  1  0
 15 14  2  0
 14 11  1  0
 11 10  2  0
 10  8  1  0
  1  2  2  0
  2  4  1  0
  4  5  2  0
  5  6  1  0
  6  7  2  0
  7  1  1  0
 12 13  2  0
 13 16  1  0
 16 17  2  0
 17 18  1  0
 18 19  2  0
 19 12  1  0
M  END
$$$$
