No_9696-complexes_sdf/6BKW-FPZ/2024-09-17-14-21-01/
     RDKit          3D

 29 31  0  0  0  0  0  0  0  0999 V2000
   -7.9040    3.9820   27.1177 C   0  0  0  0  0  0  0  0  0  0  0  0
   -8.2057    2.8231   26.8733 C   0  0  0  0  0  0  0  0  0  0  0  0
   -8.7695    5.0740   26.7916 C   0  0  0  0  0  0  0  0  0  0  0  0
   -8.4337    6.4678   27.0913 C   0  0  0  0  0  0  0  0  0  0  0  0
   -9.3742    2.4311   26.2346 C   0  0  0  0  0  0  0  0  0  0  0  0
  -10.2395    3.4267   25.8887 C   0  0  0  0  0  0  0  0  0  0  0  0
   -9.9567    4.7548   26.1374 C   0  0  0  0  0  0  0  0  0  0  0  0
   -7.9449    7.5014   26.9590 N   0  0  0  0  0  0  0  0  0  0  0  0
   -7.0833    1.8146   27.3712 C   0  0  0  0  0  0  0  0  0  0  0  0
   -5.8092    2.1957   27.5764 C   0  0  0  0  0  0  0  0  0  0  0  0
   -4.8743    1.2320   28.0946 C   0  0  0  0  0  0  0  0  0  0  0  0
   -5.1979   -0.1030   28.1684 C   0  0  0  0  0  0  0  0  0  0  0  0
   -7.4860    0.4037   27.4731 C   0  0  0  0  0  0  0  0  0  0  0  0
   -6.5204   -0.4632   27.9090 C   0  0  0  0  0  0  0  0  0  0  0  0
   -4.2394   -1.0613   28.7212 C   0  0  0  0  0  0  0  0  0  0  0  0
   -3.3919   -0.8075   29.2699 O   0  0  0  0  0  0  0  0  0  0  0  0
   -4.4434   -2.3465   28.2344 O   0  0  0  0  0  0  0  0  0  0  0  0
  -11.4505    2.9147   25.2914 C   0  0  0  0  0  0  0  0  0  0  0  0
  -11.3642    2.3393   24.1012 C   0  0  0  0  0  0  0  0  0  0  0  0
  -12.5172    1.8917   23.3944 C   0  0  0  0  0  0  0  0  0  0  0  0
  -13.7370    2.3012   23.8409 C   0  0  0  0  0  0  0  0  0  0  0  0
  -12.7286    3.4430   25.6787 C   0  0  0  0  0  0  0  0  0  0  0  0
  -13.8476    3.1240   25.0034 C   0  0  0  0  0  0  0  0  0  0  0  0
  -15.1832    3.5734   25.4583 C   0  0  0  0  0  0  0  0  0  0  0  0
  -15.7626    4.3833   25.0483 O   0  0  0  0  0  0  0  0  0  0  0  0
  -15.5500    2.9176   26.5877 O   0  0  0  0  0  0  0  0  0  0  0  0
  -12.3368    1.0938   22.2072 C   0  0  0  0  0  0  0  0  0  0  0  0
  -11.9294    0.1503   21.9964 C   0  0  0  0  0  0  0  0  0  0  0  0
  -11.7736   -0.5469   20.6926 C   0  0  0  0  0  0  0  0  0  0  0  0
  3  4  1  0
  4  8  3  0
  2  9  1  0
 12 15  1  0
 15 16  2  0
 15 17  1  0
  6 18  1  0
 23 24  1  0
 24 25  2  0
 24 26  1  0
 20 27  1  0
 27 28  2  3
 28 29  1  0
 18 19  2  0
 19 20  1  0
 20 21  2  0
 21 23  1  0
 23 22  2  0
 22 18  1  0
  1  2  2  0
  2  5  1  0
  5  6  2  0
  6  7  1  0
  7  3  2  0
  3  1  1  0
  9 10  2  0
 10 11  1  0
 11 12  2  0
 12 14  1  0
 14 13  2  0
 13  9  1  0
M  END
$$$$
