No_9585-complexes_sdf/6BKW-FPZ/2024-09-17-14-21-01/
     RDKit          3D

 17 19  0  0  0  0  0  0  0  0999 V2000
   -7.7129    4.2099   27.0854 C   0  0  0  0  0  0  0  0  0  0  0  0
   -7.7814    5.1722   27.8972 C   0  0  0  0  0  0  0  0  0  0  0  0
   -7.2983    2.9533   27.5684 C   0  0  2  0  0  0  0  0  0  0  0  0
   -6.0337    2.9060   27.9106 C   0  0  0  0  0  0  0  0  0  0  0  0
   -5.5001    1.6916   28.2615 N   0  0  0  0  0  0  0  0  0  0  0  0
   -6.2443    0.6484   27.9315 C   0  0  0  0  0  0  0  0  0  0  0  0
   -7.6722    1.5145   27.2753 C   0  0  1  0  0  0  0  0  0  0  0  0
   -8.8278    4.2493   26.1257 C   0  0  0  0  0  0  0  0  0  0  0  0
   -8.4281    6.3943   27.6776 N   0  0  0  0  0  0  0  0  0  0  0  0
   -9.4634    5.4348   25.7885 C   0  0  0  0  0  0  0  0  0  0  0  0
   -9.2375    6.5309   26.6334 C   0  0  0  0  0  0  0  0  0  0  0  0
   -8.6905    0.9076   26.7899 C   0  0  0  0  0  0  0  0  0  0  0  0
   -9.8007    1.2098   26.8649 C   0  0  0  0  0  0  0  0  0  0  0  0
  -10.8031    0.8420   26.8747 C   0  0  0  0  0  0  0  0  0  0  0  0
  -10.8949   -0.5828   26.3774 C   0  0  0  0  0  0  0  0  0  0  0  0
   -8.6155   -0.5538   26.5067 C   0  0  0  0  0  0  0  0  0  0  0  0
   -9.7429   -1.1995   26.2000 C   0  0  0  0  0  0  0  0  0  0  0  0
  3  1  1  6
  3  4  1  0
  4  5  1  0
  5  6  2  0
  3  7  1  0
  6  7  1  0
  7 12  1  1
 12 13  2  0
 13 14  1  0
 14 15  2  0
 15 17  1  0
 17 16  2  0
 16 12  1  0
  1  2  2  0
  2  9  1  0
  9 11  2  0
 11 10  1  0
 10  8  2  0
  8  1  1  0
M  END
$$$$
