No_9291-complexes_sdf/6BKW-FPZ/2024-09-17-14-21-01/
     RDKit          3D

  9  9  0  0  0  0  0  0  0  0999 V2000
   -7.2496    3.8871   27.4508 C   0  0  0  0  0  0  0  0  0  0  0  0
   -7.6161    2.7143   27.1523 C   0  0  0  0  0  0  0  0  0  0  0  0
   -6.9719    1.5838   27.5324 C   0  0  0  0  0  0  0  0  0  0  0  0
   -7.4590    0.2827   27.2615 C   0  0  0  0  0  0  0  0  0  0  0  0
   -8.6787    2.5578   26.1663 C   0  0  0  0  0  0  0  0  0  0  0  0
   -9.1184    1.2615   25.8299 C   0  0  0  0  0  0  0  0  0  0  0  0
   -8.4774    0.1568   26.3866 C   0  0  0  0  0  0  0  0  0  0  0  0
   -8.0292    5.0776   27.1809 C   0  0  0  0  0  0  0  0  0  0  0  0
   -7.7080    6.3679   27.7887 C   0  0  0  0  0  0  0  0  0  0  0  0
  1  8  1  0
  8  9  1  0
  1  2  1  0
  2  3  2  0
  3  4  1  0
  4  7  2  0
  7  6  1  0
  6  5  2  0
  5  2  1  0
M  END
$$$$
