No_9492-complexes_sdf/6BKW-FPZ/2024-09-17-14-21-01/
     RDKit          3D

 26 27  0  0  0  0  0  0  0  0999 V2000
   -7.7129    4.2099   27.0854 C   0  0  0  0  0  0  0  0  0  0  0  0
   -8.2112    3.0637   26.9225 C   0  0  0  0  0  0  0  0  0  0  0  0
   -7.5138    1.9223   27.4249 C   0  0  0  0  0  0  0  0  0  0  0  0
   -8.5309    5.4147   26.8151 C   0  0  0  0  0  0  0  0  0  0  0  0
   -9.6817    5.2393   26.1100 C   0  0  0  0  0  0  0  0  0  0  0  0
  -10.1032    3.9957   25.8534 C   0  0  0  0  0  0  0  0  0  0  0  0
   -9.4034    2.8430   26.2573 C   0  0  0  0  0  0  0  0  0  0  0  0
   -6.9207    1.3143   26.7617 F   0  0  0  0  0  0  0  0  0  0  0  0
   -7.9858    6.7606   27.0679 C   0  0  0  0  0  0  0  0  0  0  0  0
   -8.6503    7.8507   26.6995 N   0  0  0  0  0  0  0  0  0  0  0  0
   -7.1626    6.8562   28.1183 O   0  0  0  0  0  0  0  0  0  0  0  0
   -6.5526    2.4130   28.4383 F   0  0  0  0  0  0  0  0  0  0  0  0
   -8.4381    1.2160   28.2079 F   0  0  0  0  0  0  0  0  0  0  0  0
  -11.3264    3.7867   25.0371 C   0  0  1  0  0  0  0  0  0  0  0  0
  -12.4898    3.5428   25.5983 C   0  0  0  0  0  0  0  0  0  0  0  0
  -12.6050    3.3231   26.9541 C   0  0  0  0  0  0  0  0  0  0  0  0
  -13.9254    3.0823   27.5601 C   0  0  0  0  0  0  0  0  0  0  0  0
  -14.9883    3.0168   26.7457 C   0  0  0  0  0  0  0  0  0  0  0  0
  -14.9064    3.2353   25.4094 C   0  0  0  0  0  0  0  0  0  0  0  0
  -13.7043    3.5583   24.8228 C   0  0  0  0  0  0  0  0  0  0  0  0
  -11.1875    3.9880   23.6144 C   0  0  0  0  0  0  0  0  0  0  0  0
  -11.7132    3.9529   22.6345 C   0  0  0  0  0  0  0  0  0  0  0  0
  -11.2024    4.1030   21.2858 C   0  0  0  0  0  0  0  0  0  0  0  0
  -10.3090    3.7178   20.8355 C   0  0  0  0  0  0  0  0  0  0  0  0
   -9.4752    3.0428   21.2474 C   0  0  0  0  0  0  0  0  0  0  0  0
   -9.2690    2.7056   22.7528 C   0  0  0  0  0  0  0  0  0  0  0  0
  2  3  1  0
  3  8  1  0
  4  9  1  0
  9 10  1  0
  9 11  2  0
  3 12  1  0
  3 13  1  0
 14  6  1  1
 14 15  1  0
 14 21  1  0
 21 22  2  3
 22 23  1  0
 23 24  2  3
 24 25  1  0
 25 26  2  0
 15 16  2  0
 16 17  1  0
 17 18  2  0
 18 19  1  0
 19 20  2  0
 20 15  1  0
  1  2  2  0
  2  7  1  0
  7  6  2  0
  6  5  1  0
  5  4  2  0
  4  1  1  0
M  END
$$$$
