No_9220-complexes_sdf/6BKW-FPZ/2024-09-17-14-21-01/
     RDKit          3D

 21 23  0  0  0  0  0  0  0  0999 V2000
   -7.7129    4.2099   27.0854 C   0  0  0  0  0  0  0  0  0  0  0  0
   -7.7814    5.1722   27.8972 C   0  0  0  0  0  0  0  0  0  0  0  0
   -7.3155    2.9699   27.6145 C   0  0  0  0  0  0  0  0  0  0  0  0
   -6.9774    2.0071   26.9623 C   0  0  0  0  0  0  0  0  0  0  0  0
   -6.2970    0.8917   27.5555 C   0  0  0  0  0  0  0  0  0  0  0  0
   -5.1754    1.2230   28.2612 C   0  0  0  0  0  0  0  0  0  0  0  0
   -4.5250    0.1318   28.9477 C   0  0  0  0  0  0  0  0  0  0  0  0
   -4.9600   -1.0912   28.9622 C   0  0  0  0  0  0  0  0  0  0  0  0
   -6.5588   -0.4815   27.7963 C   0  0  0  0  0  0  0  0  0  0  0  0
   -4.2183   -2.0629   29.7485 C   0  0  0  0  0  0  0  0  0  0  0  0
   -6.0652   -1.4047   28.4143 C   0  0  0  0  0  0  0  0  0  0  0  0
   -8.2892    6.4349   27.3595 C   0  0  0  0  0  0  0  0  0  0  0  0
   -8.9731    6.5556   26.1383 C   0  0  0  0  0  0  0  0  0  0  0  0
   -9.0862    5.3284   25.4480 C   0  0  0  0  0  0  0  0  0  0  0  0
   -8.5617    4.1337   25.9658 C   0  0  0  0  0  0  0  0  0  0  0  0
   -4.4660   -2.9301   30.2722 C   0  0  0  0  0  0  0  0  0  0  0  0
   -3.6016   -3.8867   31.0485 C   0  0  0  0  0  0  0  0  0  0  0  0
   -2.2503   -3.6224   31.0615 C   0  0  0  0  0  0  0  0  0  0  0  0
   -1.7789   -2.4820   30.3987 C   0  0  0  0  0  0  0  0  0  0  0  0
   -2.6448   -1.6384   29.8196 C   0  0  0  0  0  0  0  0  0  0  0  0
   -7.5996    1.5876   25.8399 O   0  0  0  0  0  0  0  0  0  0  0  0
  3  4  1  0
  4  5  1  0
  8 10  1  0
  4 21  2  0
  3  1  1  0
 10 16  2  0
 16 17  1  0
 17 18  2  0
 18 19  1  0
 19 20  2  0
 20 10  1  0
  1  2  2  0
  2 12  1  0
 12 13  2  0
 13 14  1  0
 14 15  2  0
 15  1  1  0
  5  6  2  0
  6  7  1  0
  7  8  2  0
  8 11  1  0
 11  9  2  0
  9  5  1  0
M  END
$$$$
