No_9824-complexes_sdf/6BKW-FPZ/2024-09-17-14-21-01/
     RDKit          3D

 26 29  0  0  0  0  0  0  0  0999 V2000
   -7.9040    3.9820   27.1177 C   0  0  0  0  0  0  0  0  0  0  0  0
   -7.8663    4.8694   27.9238 C   0  0  0  0  0  0  0  0  0  0  0  0
   -9.0501    3.8017   26.2617 C   0  0  0  0  0  0  0  0  0  0  0  0
  -10.0189    4.7608   26.3707 C   0  0  0  0  0  0  0  0  0  0  0  0
   -8.6973    5.9722   27.8968 C   0  0  0  0  0  0  0  0  0  0  0  0
   -9.8216    5.8946   27.1241 C   0  0  0  0  0  0  0  0  0  0  0  0
   -9.1437    2.6293   25.4175 C   0  0  0  0  0  0  0  0  0  0  0  0
   -8.6170    1.4258   25.8177 C   0  0  0  0  0  0  0  0  0  0  0  0
   -8.6844    0.3194   24.9788 C   0  0  0  0  0  0  0  0  0  0  0  0
   -9.3359    0.4939   23.7289 C   0  0  0  0  0  0  0  0  0  0  0  0
   -9.8521    1.7195   23.3158 C   0  0  0  0  0  0  0  0  0  0  0  0
   -9.7240    2.7821   24.1593 C   0  0  0  0  0  0  0  0  0  0  0  0
  -10.4661    1.8424   22.0042 C   0  0  0  0  0  0  0  0  0  0  0  0
  -10.7979    0.8500   21.2526 C   0  0  0  0  0  0  0  0  0  0  0  0
  -11.3361    1.0133   19.9722 C   0  0  0  0  0  0  0  0  0  0  0  0
  -11.5910    2.3010   19.5061 C   0  0  0  0  0  0  0  0  0  0  0  0
  -10.6545    3.2160   21.4710 C   0  0  0  0  0  0  0  0  0  0  0  0
  -11.2213    3.4174   20.2789 C   0  0  0  0  0  0  0  0  0  0  0  0
   -8.0957   -0.9230   25.3622 C   0  0  2  0  0  0  0  0  0  0  0  0
   -8.2872   -1.3295   26.6184 C   0  0  0  0  0  0  0  0  0  0  0  0
   -9.1970   -0.7935   27.4544 C   0  0  0  0  0  0  0  0  0  0  0  0
   -9.3892   -1.4524   28.7536 C   0  0  0  0  0  0  0  0  0  0  0  0
   -8.5156   -2.4330   29.1618 C   0  0  0  0  0  0  0  0  0  0  0  0
   -7.5335   -2.8885   28.3927 C   0  0  0  0  0  0  0  0  0  0  0  0
   -7.3715   -2.3508   27.1173 C   0  0  0  0  0  0  0  0  0  0  0  0
   -6.6096   -0.8445   24.9914 C   0  0  0  0  0  0  0  0  0  0  0  0
  3  7  1  0
 11 13  1  0
  9 19  1  0
 19 26  1  1
 19 20  1  0
 20 21  2  0
 21 22  1  0
 22 23  2  0
 23 24  1  0
 24 25  2  0
 25 20  1  0
 13 14  2  0
 14 15  1  0
 15 16  2  0
 16 18  1  0
 18 17  2  0
 17 13  1  0
  1  2  2  0
  2  5  1  0
  5  6  2  0
  6  4  1  0
  4  3  2  0
  3  1  1  0
  7  8  2  0
  8  9  1  0
  9 10  2  0
 10 11  1  0
 11 12  2  0
 12  7  1  0
M  END
$$$$
