No_9380-complexes_sdf/6BKW-FPZ/2024-09-17-14-21-01/
     RDKit          3D

 40 44  0  0  0  0  0  0  0  0999 V2000
   -7.9040    3.9820   27.1177 C   0  0  0  0  0  0  0  0  0  0  0  0
   -8.2057    2.8231   26.8733 C   0  0  0  0  0  0  0  0  0  0  0  0
   -8.7463    4.9537   27.6708 C   0  0  0  0  0  0  0  0  0  0  0  0
  -10.0901    4.5164   28.0293 C   0  0  0  0  0  0  0  0  0  0  0  0
   -9.5729    2.3483   27.2382 C   0  0  0  0  0  0  0  0  0  0  0  0
  -10.4170    3.2421   27.8238 C   0  0  0  0  0  0  0  0  0  0  0  0
   -8.1997    6.6282   27.9038 P   0  0  0  0  0  0  0  0  0  0  0  0
   -9.3149    7.5022   27.5825 O   0  0  0  0  0  0  0  0  0  0  0  0
   -7.3504    6.4039   26.6566 O   0  0  0  0  0  0  0  0  0  0  0  0
   -7.2681    6.4597   28.9682 O   0  0  0  0  0  0  0  0  0  0  0  0
   -9.9033    0.9070   27.0777 C   0  0  0  0  0  0  0  0  0  0  0  0
  -10.4640    0.5630   25.9936 C   0  0  0  0  0  0  0  0  0  0  0  0
  -10.7456   -0.8570   25.7713 C   0  0  0  0  0  0  0  0  0  0  0  0
  -10.4810   -1.7584   26.8253 C   0  0  0  0  0  0  0  0  0  0  0  0
   -9.9845   -1.3214   28.0275 C   0  0  0  0  0  0  0  0  0  0  0  0
   -9.6494    0.0212   28.2324 C   0  0  0  0  0  0  0  0  0  0  0  0
  -11.7763    2.8204   28.2738 C   0  0  0  0  0  0  0  0  0  0  0  0
  -11.8823    3.0133   29.3651 F   0  0  0  0  0  0  0  0  0  0  0  0
  -12.3023    1.8825   27.6554 F   0  0  0  0  0  0  0  0  0  0  0  0
  -12.5492    4.0020   27.6819 F   0  0  0  0  0  0  0  0  0  0  0  0
   -9.7007   -2.2886   29.1423 C   0  0  0  0  0  0  0  0  0  0  0  0
  -10.7409   -2.8512   29.8119 C   0  0  0  0  0  0  0  0  0  0  0  0
  -10.5151   -3.6391   30.9318 C   0  0  0  0  0  0  0  0  0  0  0  0
   -9.1953   -3.8317   31.3943 C   0  0  0  0  0  0  0  0  0  0  0  0
   -8.1388   -3.2156   30.7176 C   0  0  0  0  0  0  0  0  0  0  0  0
   -8.3788   -2.4079   29.6827 C   0  0  0  0  0  0  0  0  0  0  0  0
   -6.7427   -3.3871   31.2232 C   0  0  1  0  0  0  0  0  0  0  0  0
   -6.3817   -3.1500   32.4238 C   0  0  0  0  0  0  0  0  0  0  0  0
   -6.7979   -2.8972   33.4135 C   0  0  0  0  0  0  0  0  0  0  0  0
   -6.2168   -2.4712   34.6716 C   0  0  0  0  0  0  0  0  0  0  0  0
   -4.8324   -2.3127   34.6158 C   0  0  0  0  0  0  0  0  0  0  0  0
   -4.1599   -2.5458   33.4711 C   0  0  0  0  0  0  0  0  0  0  0  0
   -4.8253   -2.8473   32.3434 C   0  0  0  0  0  0  0  0  0  0  0  0
   -5.9168   -4.0324   30.1988 C   0  0  0  0  0  0  0  0  0  0  0  0
   -5.4898   -5.3006   30.4732 C   0  0  0  0  0  0  0  0  0  0  0  0
   -4.7455   -5.9331   29.5687 C   0  0  0  0  0  0  0  0  0  0  0  0
   -5.5280   -3.4068   29.0549 C   0  0  0  0  0  0  0  0  0  0  0  0
   -4.7701   -4.0301   28.0884 C   0  0  0  0  0  0  0  0  0  0  0  0
   -4.3781   -5.3232   28.3824 C   0  0  0  0  0  0  0  0  0  0  0  0
   -2.6857   -2.3131   33.4465 C   0  0  0  0  0  0  0  0  0  0  0  0
  3  7  1  0
  7  8  1  0
  7  9  2  0
  7 10  1  0
  5 11  1  0
  6 17  1  0
 17 18  1  0
 17 19  1  0
 17 20  1  0
 15 21  1  0
 27 25  1  1
 27 28  1  0
 27 34  1  0
 32 40  1  0
 11 12  2  0
 12 13  1  0
 13 14  2  0
 14 15  1  0
 15 16  2  0
 16 11  1  0
 34 35  2  0
 35 36  1  0
 36 39  2  0
 39 38  1  0
 38 37  2  0
 37 34  1  0
 28 29  2  0
 29 30  1  0
 30 31  2  0
 31 32  1  0
 32 33  2  0
 33 28  1  0
  1  2  2  0
  2  5  1  0
  5  6  2  0
  6  4  1  0
  4  3  2  0
  3  1  1  0
 21 22  2  0
 22 23  1  0
 23 24  2  0
 24 25  1  0
 25 26  2  0
 26 21  1  0
M  END
$$$$
