No_9546-complexes_sdf/6BKW-FPZ/2024-09-17-14-21-01/
     RDKit          3D

 34 37  0  0  0  0  0  0  0  0999 V2000
   -7.7129    4.2099   27.0854 C   0  0  0  0  0  0  0  0  0  0  0  0
   -7.7814    5.1722   27.8972 C   0  0  0  0  0  0  0  0  0  0  0  0
   -8.8998    3.8713   26.3707 C   0  0  0  0  0  0  0  0  0  0  0  0
   -9.9938    4.6774   26.5446 C   0  0  0  0  0  0  0  0  0  0  0  0
   -8.7789    6.1536   27.9256 C   0  0  0  0  0  0  0  0  0  0  0  0
   -9.9428    5.8398   27.2296 C   0  0  0  0  0  0  0  0  0  0  0  0
   -8.9119    2.6447   25.5685 C   0  0  0  0  0  0  0  0  0  0  0  0
   -9.7965    2.5353   24.5160 C   0  0  0  0  0  0  0  0  0  0  0  0
   -9.8470    1.4006   23.7115 C   0  0  0  0  0  0  0  0  0  0  0  0
   -8.8958    0.3527   23.9867 C   0  0  0  0  0  0  0  0  0  0  0  0
   -8.0531    0.4472   25.0634 C   0  0  0  0  0  0  0  0  0  0  0  0
   -8.0207    1.5886   25.8749 C   0  0  0  0  0  0  0  0  0  0  0  0
  -10.7272    1.3099   22.5781 C   0  0  0  0  0  0  0  0  0  0  0  0
  -12.0295    1.1115   22.9042 C   0  0  0  0  0  0  0  0  0  0  0  0
  -12.4579    1.0559   24.1575 C   0  0  0  0  0  0  0  0  0  0  0  0
  -13.3191    1.0639   24.7590 C   0  0  0  0  0  0  0  0  0  0  0  0
  -14.6578    1.2747   24.2297 C   0  0  0  0  0  0  0  0  0  0  0  0
  -14.5644    1.3135   22.7848 C   0  0  0  0  0  0  0  0  0  0  0  0
  -13.2583    1.4143   22.0747 C   0  0  0  0  0  0  0  0  0  0  0  0
  -10.2470    1.3986   21.2462 C   0  0  0  0  0  0  0  0  0  0  0  0
  -15.7623    1.5159   21.9646 C   0  0  0  0  0  0  0  0  0  0  0  0
  -16.1245    0.6657   21.3571 F   0  0  0  0  0  0  0  0  0  0  0  0
  -16.7700    1.9463   22.8648 F   0  0  0  0  0  0  0  0  0  0  0  0
  -15.5652    2.6304   21.1919 F   0  0  0  0  0  0  0  0  0  0  0  0
   -6.6411    5.5733   28.5803 F   0  0  0  0  0  0  0  0  0  0  0  0
   -7.1283   -0.6440   25.3749 C   0  0  0  0  0  0  0  0  0  0  0  0
   -7.4827   -1.4902   25.9515 O   0  0  0  0  0  0  0  0  0  0  0  0
   -5.9415   -0.5627   24.8327 O   0  0  0  0  0  0  0  0  0  0  0  0
  -13.5353    0.8807   26.3425 C   0  0  0  0  0  0  0  0  0  0  0  0
  -12.4892    0.3636   26.9735 C   0  0  0  0  0  0  0  0  0  0  0  0
  -12.4300    0.2426   28.3998 C   0  0  0  0  0  0  0  0  0  0  0  0
  -13.4954    0.7423   29.1501 C   0  0  0  0  0  0  0  0  0  0  0  0
  -14.5320    1.3367   28.4919 C   0  0  0  0  0  0  0  0  0  0  0  0
  -14.5778    1.4546   27.1120 C   0  0  0  0  0  0  0  0  0  0  0  0
  3  7  1  0
  9 13  1  0
 13 20  1  0
 18 21  1  0
 21 22  1  0
 21 23  1  0
 21 24  1  0
  2 25  1  0
 11 26  1  0
 26 27  1  0
 26 28  2  0
 16 29  1  0
 13 14  1  0
 29 30  2  0
 30 31  1  0
 31 32  2  0
 32 33  1  0
 33 34  2  0
 34 29  1  0
 14 15  2  0
 15 16  1  0
 16 17  2  0
 17 18  1  0
 18 19  2  0
 19 14  1  0
  1  2  2  0
  2  5  1  0
  5  6  2  0
  6  4  1  0
  4  3  2  0
  3  1  1  0
  7  8  2  0
  8  9  1  0
  9 10  2  0
 10 11  1  0
 11 12  2  0
 12  7  1  0
M  END
$$$$
