No_9909-complexes_sdf/6BKW-FPZ/2024-09-17-14-21-01/
     RDKit          3D

 13 13  0  0  0  0  0  0  0  0999 V2000
   -7.7129    4.2099   27.0854 C   0  0  0  0  0  0  0  0  0  0  0  0
   -7.7814    5.1722   27.8972 C   0  0  0  0  0  0  0  0  0  0  0  0
   -8.8255    3.2789   27.1191 C   0  0  0  0  0  0  0  0  0  0  0  0
   -9.9209    3.4734   27.9101 C   0  0  0  0  0  0  0  0  0  0  0  0
  -10.9752    2.5069   28.0201 C   0  0  0  0  0  0  0  0  0  0  0  0
   -8.9991    5.6269   28.5996 C   0  0  0  0  0  0  0  0  0  0  0  0
   -9.9928    4.6433   28.6536 C   0  0  0  0  0  0  0  0  0  0  0  0
  -12.1309    2.8251   28.5480 C   0  0  0  0  0  0  0  0  0  0  0  0
   -8.6204    2.0114   26.3888 C   0  0  0  0  0  0  0  0  0  0  0  0
   -7.9718    1.0113   27.1899 C   0  0  0  0  0  0  0  0  0  0  0  0
   -7.9709   -0.3091   26.8220 C   0  0  0  0  0  0  0  0  0  0  0  0
  -12.6957    3.9671   28.2571 C   0  0  0  0  0  0  0  0  0  0  0  0
   -8.5577   -0.5788   25.6726 C   0  0  0  0  0  0  0  0  0  0  0  0
  4  5  1  0
  5  8  1  0
  3  9  1  0
  9 10  1  0
 10 11  2  3
  8 12  1  0
 11 13  1  0
  1  2  2  0
  2  6  1  0
  6  7  2  0
  7  4  1  0
  4  3  2  0
  3  1  1  0
M  END
$$$$
