No_9802-complexes_sdf/6BKW-FPZ/2024-09-17-14-21-01/
     RDKit          3D

 14 15  0  0  0  0  0  0  0  0999 V2000
   -7.9040    3.9820   27.1177 C   0  0  0  0  0  0  0  0  0  0  0  0
   -8.2057    2.8231   26.8733 C   0  0  0  0  0  0  0  0  0  0  0  0
   -7.0130    4.3706   28.1140 C   0  0  0  0  0  0  0  0  0  0  0  0
   -9.3829    2.4374   26.1668 C   0  0  0  0  0  0  0  0  0  0  0  0
  -10.0975    3.4171   25.5988 C   0  0  0  0  0  0  0  0  0  0  0  0
   -9.7335    4.7745   25.7705 C   0  0  0  0  0  0  0  0  0  0  0  0
   -8.7730    5.1246   26.5045 C   0  0  0  0  0  0  0  0  0  0  0  0
  -11.2237    3.0870   24.6703 C   0  0  0  0  0  0  0  0  0  0  0  0
  -11.2356    3.6149   23.4768 C   0  0  0  0  0  0  0  0  0  0  0  0
  -11.8786    3.4827   22.5368 C   0  0  0  0  0  0  0  0  0  0  0  0
  -12.8886    2.4152   22.6219 C   0  0  0  0  0  0  0  0  0  0  0  0
  -11.8761    1.9509   24.6707 C   0  0  0  0  0  0  0  0  0  0  0  0
  -12.8368    1.6801   23.7425 C   0  0  0  0  0  0  0  0  0  0  0  0
   -5.8638    3.6180   28.1413 N   0  0  0  0  0  0  0  0  0  0  0  0
  5  8  1  0
  3 14  1  0
  3  1  1  0
  1  2  2  0
  2  4  1  0
  4  5  2  0
  5  6  1  0
  6  7  2  0
  7  1  1  0
  8  9  2  0
  9 10  1  0
 10 11  2  0
 11 13  1  0
 13 12  2  0
 12  8  1  0
M  END
$$$$
