No_9935-complexes_sdf/6BKW-FPZ/2024-09-17-14-21-01/
     RDKit          3D

 16 17  0  0  0  0  0  0  0  0999 V2000
   -7.7129    4.2099   27.0854 C   0  0  0  0  0  0  0  0  0  0  0  0
   -7.7814    5.1722   27.8972 C   0  0  0  0  0  0  0  0  0  0  0  0
   -8.8998    3.8713   26.3707 C   0  0  0  0  0  0  0  0  0  0  0  0
   -8.9563    2.6796   25.5490 C   0  0  0  0  0  0  0  0  0  0  0  0
   -8.8131    6.1334   27.9344 C   0  0  0  0  0  0  0  0  0  0  0  0
   -9.9804    5.8121   27.1929 C   0  0  0  0  0  0  0  0  0  0  0  0
   -9.9861    4.6836   26.4532 C   0  0  0  0  0  0  0  0  0  0  0  0
   -9.7283    1.8430   25.8434 N   0  0  0  0  0  0  0  0  0  0  0  0
  -10.5407    1.6003   26.4315 C   0  0  0  0  0  0  0  0  0  0  0  0
  -10.9737    0.1658   26.7284 C   0  0  0  0  0  0  0  0  0  0  0  0
   -9.3901    0.4787   25.1750 C   0  0  2  0  0  0  0  0  0  0  0  0
  -10.1747   -0.4540   25.7972 C   0  0  0  0  0  0  0  0  0  0  0  0
  -10.2158   -1.8825   25.5191 C   0  0  0  0  0  0  0  0  0  0  0  0
   -9.2540   -2.3312   24.7945 C   0  0  0  0  0  0  0  0  0  0  0  0
   -9.1278   -3.6778   24.4869 C   0  0  0  0  0  0  0  0  0  0  0  0
   -8.3863    0.2438   24.2149 C   0  0  0  0  0  0  0  0  0  0  0  0
  3  4  1  0
  4  8  1  0
  8  9  1  0
  9 10  2  0
  8 11  1  0
 10 12  1  0
 11 12  1  0
 12 13  1  0
 13 14  2  3
 14 15  1  0
 11 16  1  1
  1  2  2  0
  2  5  1  0
  5  6  2  0
  6  7  1  0
  7  3  2  0
  3  1  1  0
M  END
$$$$
