No_9001-complexes_sdf/6BKW-FPZ/2024-09-17-14-21-01/
     RDKit          3D

 40 45  0  0  0  0  0  0  0  0999 V2000
   -7.9040    3.9820   27.1177 C   0  0  0  0  0  0  0  0  0  0  0  0
   -7.8663    4.8694   27.9238 C   0  0  0  0  0  0  0  0  0  0  0  0
   -7.4547    2.7080   27.4594 C   0  0  0  0  0  0  0  0  0  0  0  0
   -7.9337    1.5946   26.8372 C   0  0  0  0  0  0  0  0  0  0  0  0
   -8.9032    1.7881   25.8510 C   0  0  0  0  0  0  0  0  0  0  0  0
   -9.3787    2.9871   25.5530 C   0  0  0  0  0  0  0  0  0  0  0  0
   -8.9781    4.0300   26.2200 C   0  0  0  0  0  0  0  0  0  0  0  0
   -7.0491    4.9785   28.9506 N   0  0  0  0  0  0  0  0  0  0  0  0
   -8.4703    6.1433   27.7412 O   0  0  0  0  0  0  0  0  0  0  0  0
  -10.3578    3.3173   24.3984 C   0  0  0  0  0  0  0  0  0  0  0  0
  -10.7104    4.5114   24.0603 C   0  0  0  0  0  0  0  0  0  0  0  0
  -10.6942    2.2284   23.5612 C   0  0  0  0  0  0  0  0  0  0  0  0
  -11.4249    2.4033   22.4833 C   0  0  0  0  0  0  0  0  0  0  0  0
  -11.5156    4.8012   22.9523 C   0  0  0  0  0  0  0  0  0  0  0  0
  -11.8575    3.7411   22.1424 C   0  0  0  0  0  0  0  0  0  0  0  0
   -7.3696    0.2547   27.1106 C   0  0  0  0  0  0  0  0  0  0  0  0
   -8.0944   -0.8425   27.1384 C   0  0  0  0  0  0  0  0  0  0  0  0
   -9.2351   -0.9675   26.8351 C   0  0  0  0  0  0  0  0  0  0  0  0
  -10.0304   -1.8069   27.1214 C   0  0  0  0  0  0  0  0  0  0  0  0
  -11.4942   -1.7411   26.8445 C   0  0  0  0  0  0  0  0  0  0  0  0
  -11.8582   -0.6552   26.0891 C   0  0  0  0  0  0  0  0  0  0  0  0
  -11.0343    0.2906   25.7163 C   0  0  0  0  0  0  0  0  0  0  0  0
   -9.6975    0.2150   26.0924 C   0  0  0  0  0  0  0  0  0  0  0  0
  -13.1931   -0.6389   25.6690 O   0  0  0  0  0  0  0  0  0  0  0  0
   -5.8742    0.4059   27.6452 C   0  0  0  0  0  0  0  0  0  0  0  0
   -5.2301   -0.6729   28.0919 C   0  0  0  0  0  0  0  0  0  0  0  0
   -5.6800   -1.8896   27.9582 C   0  0  0  0  0  0  0  0  0  0  0  0
   -7.1865   -2.0508   27.6347 C   0  0  0  0  0  0  0  0  0  0  0  0
   -3.7688   -0.4734   28.4773 C   0  0  1  0  0  0  0  0  0  0  0  0
   -3.1572    0.5107   28.1124 N   0  0  0  0  0  0  0  0  0  0  0  0
   -3.1781   -1.3727   29.4380 C   0  0  0  0  0  0  0  0  0  0  0  0
   -3.3053   -0.9719   30.7652 C   0  0  0  0  0  0  0  0  0  0  0  0
   -3.7691    0.1323   31.1628 C   0  0  0  0  0  0  0  0  0  0  0  0
   -4.0797    0.1908   32.5807 C   0  0  0  0  0  0  0  0  0  0  0  0
   -2.8815   -1.9334   31.8003 C   0  0  0  0  0  0  0  0  0  0  0  0
   -3.0636   -1.8235   33.1341 C   0  0  0  0  0  0  0  0  0  0  0  0
   -3.7002   -0.6038   33.5700 C   0  0  0  0  0  0  0  0  0  0  0  0
   -2.5119    0.5562   26.8253 C   0  0  0  0  0  0  0  0  0  0  0  0
   -3.8962   -0.3965   34.9010 O   0  0  0  0  0  0  0  0  0  0  0  0
   -3.6187   -1.2920   35.8956 C   0  0  0  0  0  0  0  0  0  0  0  0
  1  2  1  0
  2  8  1  0
  2  9  2  0
  6 10  1  0
 21 24  1  0
 26 29  1  0
 29 30  1  0
 29 31  1  1
 31 32  1  0
 30 38  1  0
 37 39  1  0
 39 40  1  0
 17 28  2  0
 28 27  1  0
 27 26  2  0
 26 25  1  0
 25 16  2  0
 18 19  2  0
 19 20  1  0
 20 21  2  0
 21 22  1  0
 22 23  2  0
  1  3  2  0
  3  4  1  0
  5  6  1  0
  6  7  2  0
  7  1  1  0
 10 11  2  0
 11 14  1  0
 14 15  2  0
 15 13  1  0
 13 12  2  0
 12 10  1  0
  4  5  2  0
  5 23  1  0
 23 18  1  0
 18 17  1  0
 17 16  1  0
 16  4  1  0
 32 33  2  0
 33 34  1  0
 34 37  2  0
 37 36  1  0
 36 35  2  0
 35 32  1  0
M  END
$$$$
