No_9070-complexes_sdf/6BKW-FPZ/2024-09-17-14-21-01/
     RDKit          3D

 14 15  0  0  0  0  0  0  0  0999 V2000
   -7.9040    3.9820   27.1177 C   0  0  0  0  0  0  0  0  0  0  0  0
   -8.2057    2.8231   26.8733 C   0  0  0  0  0  0  0  0  0  0  0  0
   -7.4766    1.7477   27.4593 C   0  0  0  0  0  0  0  0  0  0  0  0
   -8.7468    5.1251   26.6967 C   0  0  0  0  0  0  0  0  0  0  0  0
   -9.7234    4.8589   25.8202 C   0  0  0  0  0  0  0  0  0  0  0  0
   -9.9711    3.5858   25.4266 C   0  0  0  0  0  0  0  0  0  0  0  0
   -9.2266    2.4957   25.9600 C   0  0  0  0  0  0  0  0  0  0  0  0
   -7.8876    0.4499   27.3622 N   0  0  0  0  0  0  0  0  0  0  0  0
   -7.1503   -0.4911   27.9531 C   0  0  0  0  0  0  0  0  0  0  0  0
   -5.9350   -0.3590   28.0866 C   0  0  0  0  0  0  0  0  0  0  0  0
   -6.1035    1.8979   27.7735 C   0  0  0  0  0  0  0  0  0  0  0  0
   -5.2794    0.9265   28.1327 C   0  0  0  0  0  0  0  0  0  0  0  0
   -8.4155    6.5132   27.0908 C   0  0  0  0  0  0  0  0  0  0  0  0
   -8.1862    7.8768   26.4414 Cl  0  0  0  0  0  0  0  0  0  0  0  0
  2  3  1  0
  4 13  1  0
 13 14  1  0
  3  8  2  0
  8  9  1  0
  9 10  2  0
 10 12  1  0
 12 11  2  0
 11  3  1  0
  1  2  2  0
  2  7  1  0
  7  6  2  0
  6  5  1  0
  5  4  2  0
  4  1  1  0
M  END
$$$$
