No_9851-complexes_sdf/6BKW-FPZ/2024-09-17-14-21-01/
     RDKit          3D

 18 20  0  0  0  0  0  0  0  0999 V2000
   -7.9040    3.9820   27.1177 C   0  0  0  0  0  0  0  0  0  0  0  0
   -7.8663    4.8694   27.9238 C   0  0  0  0  0  0  0  0  0  0  0  0
   -9.0501    3.8017   26.2617 C   0  0  0  0  0  0  0  0  0  0  0  0
   -9.1826    2.7026   25.3575 C   0  0  0  0  0  0  0  0  0  0  0  0
   -8.6940    6.0131   27.8614 C   0  0  0  0  0  0  0  0  0  0  0  0
   -9.9755    4.8547   26.2361 C   0  0  0  0  0  0  0  0  0  0  0  0
   -9.7463    5.9398   27.0364 C   0  0  0  0  0  0  0  0  0  0  0  0
  -10.0161    2.8236   24.3578 N   0  0  0  0  0  0  0  0  0  0  0  0
  -10.0548    1.7446   23.5206 C   0  0  0  0  0  0  0  0  0  0  0  0
   -8.5110    1.5728   25.5356 C   0  0  0  0  0  0  0  0  0  0  0  0
   -8.5423    0.5155   24.7072 C   0  0  0  0  0  0  0  0  0  0  0  0
   -9.3511    0.6471   23.6183 C   0  0  0  0  0  0  0  0  0  0  0  0
  -10.9125    1.7149   22.2711 C   0  0  0  0  0  0  0  0  0  0  0  0
  -11.2563    2.9926   21.8197 C   0  0  0  0  0  0  0  0  0  0  0  0
  -11.9470    3.1313   20.6299 C   0  0  0  0  0  0  0  0  0  0  0  0
  -12.2626    1.9999   19.8352 C   0  0  0  0  0  0  0  0  0  0  0  0
  -11.8199    0.7748   20.3085 C   0  0  0  0  0  0  0  0  0  0  0  0
  -11.0931    0.6733   21.4768 C   0  0  0  0  0  0  0  0  0  0  0  0
  3  4  1  0
  9 13  1  0
  4  8  2  0
  8  9  1  0
  9 12  2  0
 12 11  1  0
 11 10  2  0
 10  4  1  0
 13 14  2  0
 14 15  1  0
 15 16  2  0
 16 17  1  0
 17 18  2  0
 18 13  1  0
  1  2  2  0
  2  5  1  0
  5  7  2  0
  7  6  1  0
  6  3  2  0
  3  1  1  0
M  END
$$$$
