No_9261-complexes_sdf/6BKW-FPZ/2024-09-17-14-21-01/
     RDKit          3D

 26 29  0  0  0  0  0  0  0  0999 V2000
   -7.9040    3.9820   27.1177 C   0  0  0  0  0  0  0  0  0  0  0  0
   -8.2057    2.8231   26.8733 C   0  0  0  0  0  0  0  0  0  0  0  0
   -9.2962    2.4021   26.1155 C   0  0  0  0  0  0  0  0  0  0  0  0
   -8.7358    5.0662   26.5917 C   0  0  0  0  0  0  0  0  0  0  0  0
   -9.7618    4.7023   25.7546 C   0  0  0  0  0  0  0  0  0  0  0  0
  -10.0066    3.4105   25.4922 C   0  0  0  0  0  0  0  0  0  0  0  0
   -8.3943    6.4761   26.8801 C   0  0  0  0  0  0  0  0  0  0  0  0
   -8.6590    7.3213   26.1280 F   0  0  0  0  0  0  0  0  0  0  0  0
   -8.8553    6.6103   28.1538 F   0  0  0  0  0  0  0  0  0  0  0  0
   -7.0016    6.5587   27.1513 F   0  0  0  0  0  0  0  0  0  0  0  0
   -7.3560    1.6645   27.4914 C   0  0  0  0  0  0  0  0  0  0  0  0
   -5.9704    1.8970   27.7475 C   0  0  0  0  0  0  0  0  0  0  0  0
   -5.1894    0.8404   28.2767 C   0  0  0  0  0  0  0  0  0  0  0  0
   -5.7151   -0.4310   28.3617 C   0  0  0  0  0  0  0  0  0  0  0  0
   -7.7882    0.3413   27.5280 C   0  0  0  0  0  0  0  0  0  0  0  0
   -7.0444   -0.6345   28.0121 C   0  0  0  0  0  0  0  0  0  0  0  0
   -4.8624   -1.4956   28.9161 C   0  0  0  0  0  0  0  0  0  0  0  0
   -5.0219   -2.2422   29.6206 C   0  0  0  0  0  0  0  0  0  0  0  0
   -4.0592   -3.2490   30.1643 C   0  0  0  0  0  0  0  0  0  0  0  0
   -4.2130   -4.1038   31.1811 C   0  0  0  0  0  0  0  0  0  0  0  0
   -3.3957   -1.2337   28.7247 C   0  0  0  0  0  0  0  0  0  0  0  0
   -2.3968   -2.0096   29.0825 C   0  0  0  0  0  0  0  0  0  0  0  0
   -2.7202   -2.9928   29.9266 C   0  0  0  0  0  0  0  0  0  0  0  0
   -5.4387   -4.0916   31.8129 C   0  0  0  0  0  0  0  0  0  0  0  0
   -6.4739   -3.2664   31.3416 C   0  0  0  0  0  0  0  0  0  0  0  0
   -6.3244   -2.3547   30.4096 C   0  0  0  0  0  0  0  0  0  0  0  0
  4  7  1  0
  7  8  1  0
  7  9  1  0
  7 10  1  0
  2 11  1  0
 14 17  1  0
  1  2  2  0
  2  3  1  0
  3  6  2  0
  6  5  1  0
  5  4  2  0
  4  1  1  0
 19 20  2  0
 20 24  1  0
 24 25  2  0
 25 26  1  0
 26 18  2  0
 17 18  1  0
 18 19  1  0
 19 23  1  0
 23 22  2  0
 22 21  1  0
 21 17  2  0
 11 12  2  0
 12 13  1  0
 13 14  2  0
 14 16  1  0
 16 15  2  0
 15 11  1  0
M  END
$$$$
