No_9486-complexes_sdf/6BKW-FPZ/2024-09-17-14-21-01/
     RDKit          3D

 29 33  0  0  0  0  0  0  0  0999 V2000
   -7.9040    3.9820   27.1177 C   0  0  0  0  0  0  0  0  0  0  0  0
   -7.8663    4.8694   27.9238 C   0  0  0  0  0  0  0  0  0  0  0  0
   -9.0953    3.1697   27.0532 C   0  0  0  0  0  0  0  0  0  0  0  0
  -10.1313    3.4052   27.8871 C   0  0  0  0  0  0  0  0  0  0  0  0
   -8.9489    5.3814   28.6671 C   0  0  0  0  0  0  0  0  0  0  0  0
  -10.1039    4.5714   28.7102 C   0  0  0  0  0  0  0  0  0  0  0  0
   -9.2517    1.9372   26.2582 C   0  0  0  0  0  0  0  0  0  0  0  0
   -8.7959    0.7283   26.6741 C   0  0  0  0  0  0  0  0  0  0  0  0
   -8.2244    0.4842   27.7473 C   0  0  0  0  0  0  0  0  0  0  0  0
   -7.7527   -0.8154   28.1945 C   0  0  0  0  0  0  0  0  0  0  0  0
   -8.1532   -1.8574   27.3859 C   0  0  0  0  0  0  0  0  0  0  0  0
   -9.0987   -0.5898   26.0794 C   0  0  0  0  0  0  0  0  0  0  0  0
   -8.8182   -1.7512   26.3278 C   0  0  0  0  0  0  0  0  0  0  0  0
  -10.2947    2.0006   25.2203 C   0  0  0  0  0  0  0  0  0  0  0  0
  -11.4221    2.3088   25.4515 C   0  0  0  0  0  0  0  0  0  0  0  0
  -12.3706    2.4186   24.3535 C   0  0  0  0  0  0  0  0  0  0  0  0
  -11.9157    2.1438   23.0874 C   0  0  0  0  0  0  0  0  0  0  0  0
   -9.8804    1.7729   23.8598 C   0  0  0  0  0  0  0  0  0  0  0  0
  -10.6020    1.8389   22.8456 C   0  0  0  0  0  0  0  0  0  0  0  0
   -7.6903   -3.2575   27.9514 C   0  0  0  0  0  0  0  0  0  0  0  0
   -8.0378   -4.1746   27.6385 C   0  0  0  0  0  0  0  0  0  0  0  0
   -7.5789   -5.5011   28.1559 C   0  0  0  0  0  0  0  0  0  0  0  0
   -6.6167   -5.4652   29.1436 C   0  0  0  0  0  0  0  0  0  0  0  0
   -6.1630   -4.2757   29.6145 C   0  0  0  0  0  0  0  0  0  0  0  0
   -6.6395   -3.0904   29.0960 C   0  0  0  0  0  0  0  0  0  0  0  0
   -5.1442   -4.1779   30.7062 C   0  0  0  0  0  0  0  0  0  0  0  0
   -4.7406   -3.0882   31.0968 C   0  0  0  0  0  0  0  0  0  0  0  0
   -5.2950   -1.8005   30.4978 C   0  0  0  0  0  0  0  0  0  0  0  0
   -6.2032   -1.8202   29.5704 C   0  0  0  0  0  0  0  0  0  0  0  0
  3  7  1  0
  7  8  1  0
  7 14  1  0
 11 20  1  0
 25 29  2  0
 29 28  1  0
 28 27  2  0
 27 26  1  0
 26 24  2  0
 14 15  2  0
 15 16  1  0
 16 17  2  0
 17 19  1  0
 19 18  2  0
 18 14  1  0
 20 21  2  0
 21 22  1  0
 22 23  2  0
 23 24  1  0
 24 25  1  0
 25 20  1  0
  1  2  2  0
  2  5  1  0
  5  6  2  0
  6  4  1  0
  4  3  2  0
  3  1  1  0
  8  9  2  0
  9 10  1  0
 10 11  2  0
 11 13  1  0
 13 12  2  0
 12  8  1  0
M  END
$$$$
