No_9889-complexes_sdf/6BKW-FPZ/2024-09-17-14-21-01/
     RDKit          3D

 29 31  0  0  0  0  0  0  0  0999 V2000
   -7.9040    3.9820   27.1177 C   0  0  0  0  0  0  0  0  0  0  0  0
   -8.2057    2.8231   26.8733 C   0  0  0  0  0  0  0  0  0  0  0  0
   -9.2962    2.4021   26.1155 C   0  0  0  0  0  0  0  0  0  0  0  0
   -8.7358    5.0662   26.5917 C   0  0  0  0  0  0  0  0  0  0  0  0
   -9.7618    4.7023   25.7546 C   0  0  0  0  0  0  0  0  0  0  0  0
  -10.0066    3.4105   25.4922 C   0  0  0  0  0  0  0  0  0  0  0  0
   -8.3943    6.4760   26.8801 C   0  0  0  0  0  0  0  0  0  0  0  0
   -8.6590    7.3213   26.1280 F   0  0  0  0  0  0  0  0  0  0  0  0
   -7.0387    6.4908   27.1906 F   0  0  0  0  0  0  0  0  0  0  0  0
   -9.0767    6.6237   28.1752 F   0  0  0  0  0  0  0  0  0  0  0  0
   -7.3568    1.6625   27.4892 C   0  0  0  0  0  0  0  0  0  0  0  0
   -7.7332    0.3323   27.3948 C   0  0  0  0  0  0  0  0  0  0  0  0
   -6.8738   -0.6457   27.8687 C   0  0  0  0  0  0  0  0  0  0  0  0
   -5.6220   -0.2850   28.3895 C   0  0  0  0  0  0  0  0  0  0  0  0
   -5.1890    1.0630   28.3242 C   0  0  0  0  0  0  0  0  0  0  0  0
   -5.9832    1.9925   27.8746 C   0  0  0  0  0  0  0  0  0  0  0  0
   -4.7175   -1.3477   28.9359 C   0  0  1  0  0  0  0  0  0  0  0  0
   -4.9127   -1.9835   29.9056 C   0  0  0  0  0  0  0  0  0  0  0  0
   -6.0754   -1.6611   30.8379 C   0  0  0  0  0  0  0  0  0  0  0  0
   -6.2392   -2.3520   32.1128 C   0  0  0  0  0  0  0  0  0  0  0  0
   -5.3558   -3.3748   32.3781 C   0  0  0  0  0  0  0  0  0  0  0  0
   -4.3053   -3.6894   31.5908 C   0  0  0  0  0  0  0  0  0  0  0  0
   -4.0772   -2.9549   30.4233 C   0  0  0  0  0  0  0  0  0  0  0  0
   -3.7385   -1.6953   28.1073 N   0  0  0  0  0  0  0  0  0  0  0  0
   -2.7744   -1.6720   27.7309 C   0  0  0  0  0  0  0  0  0  0  0  0
   -1.6972   -0.9838   28.2535 C   0  0  0  0  0  0  0  0  0  0  0  0
   -2.4306   -2.1064   26.4989 O   0  0  0  0  0  0  0  0  0  0  0  0
   -0.5757   -0.9499   28.2353 C   0  0  0  0  0  0  0  0  0  0  0  0
   -2.2440   -0.0152   29.5345 C   0  0  0  0  0  0  0  0  0  0  0  0
  4  7  1  0
  7  8  1  0
  7  9  1  0
  7 10  1  0
  2 11  1  0
 14 17  1  0
 17 24  1  6
 24 25  1  0
 25 26  1  0
 25 27  2  0
 26 28  2  0
 26 29  1  0
 17 18  1  0
 18 19  2  0
 19 20  1  0
 20 21  2  0
 21 22  1  0
 22 23  2  0
 23 18  1  0
 11 12  2  0
 12 13  1  0
 13 14  2  0
 14 15  1  0
 15 16  2  0
 16 11  1  0
  1  2  2  0
  2  3  1  0
  3  6  2  0
  6  5  1  0
  5  4  2  0
  4  1  1  0
M  END
$$$$
