No_9632-complexes_sdf/6BKW-FPZ/2024-09-17-14-21-01/
     RDKit          3D

  8  8  0  0  0  0  0  0  0  0999 V2000
   -7.2496    3.8871   27.4508 C   0  0  0  0  0  0  0  0  0  0  0  0
   -7.6161    2.7143   27.1523 C   0  0  0  0  0  0  0  0  0  0  0  0
   -8.6212    2.2239   26.4073 C   0  0  0  0  0  0  0  0  0  0  0  0
   -8.2540    4.9237   27.1711 C   0  0  0  0  0  0  0  0  0  0  0  0
   -8.0299    6.2902   27.5026 C   0  0  0  0  0  0  0  0  0  0  0  0
   -9.4433    4.5560   26.5450 C   0  0  0  0  0  0  0  0  0  0  0  0
   -9.6358    3.2653   26.1682 C   0  0  0  0  0  0  0  0  0  0  0  0
   -8.8970    7.2609   27.1469 N   0  0  0  0  0  0  0  0  0  0  0  0
  4  5  1  0
  5  8  1  0
  1  2  2  0
  2  3  1  0
  3  7  2  0
  7  6  1  0
  6  4  2  0
  4  1  1  0
M  END
$$$$
