No_9918-complexes_sdf/6BKW-FPZ/2024-09-17-14-21-01/
     RDKit          3D

 13 13  0  0  0  0  0  0  0  0999 V2000
   -7.2496    3.8871   27.4508 C   0  0  0  0  0  0  0  0  0  0  0  0
   -8.5096    4.0291   27.2770 C   0  0  0  0  0  0  0  0  0  0  0  0
   -9.3451    2.8786   26.9046 C   0  0  0  0  0  0  0  0  0  0  0  0
   -6.6065    2.5680   27.5073 C   0  0  0  0  0  0  0  0  0  0  0  0
   -7.3970    1.4834   27.2271 C   0  0  0  0  0  0  0  0  0  0  0  0
   -8.7029    1.6398   26.9934 C   0  0  0  0  0  0  0  0  0  0  0  0
   -9.1085    5.3654   27.2135 C   0  0  0  0  0  0  0  0  0  0  0  0
   -8.5986    6.3894   26.9717 C   0  0  0  0  0  0  0  0  0  0  0  0
   -9.1956    7.7615   27.0188 C   0  0  0  0  0  0  0  0  0  0  0  0
   -6.7439    0.1890   27.2890 C   0  0  0  0  0  0  0  0  0  0  0  0
   -5.7069    0.0029   27.8338 O   0  0  0  0  0  0  0  0  0  0  0  0
   -7.1586   -0.7603   26.3533 O   0  0  0  0  0  0  0  0  0  0  0  0
  -10.5609    5.3312   27.5319 C   0  0  0  0  0  0  0  0  0  0  0  0
  2  7  1  0
  7  8  2  3
  8  9  1  0
  5 10  1  0
 10 11  2  0
 10 12  1  0
  7 13  1  0
  1  2  2  0
  2  3  1  0
  3  6  2  0
  6  5  1  0
  5  4  2  0
  4  1  1  0
M  END
$$$$
