No_9137-complexes_sdf/6BKW-FPZ/2024-09-17-14-21-01/
     RDKit          3D

 14 15  0  0  0  0  0  0  0  0999 V2000
   -7.2496    3.8871   27.4508 C   0  0  0  0  0  0  0  0  0  0  0  0
   -7.9379    4.9063   27.8518 C   0  0  0  0  0  0  0  0  0  0  0  0
   -7.5112    6.1898   27.6280 C   0  0  0  0  0  0  0  0  0  0  0  0
   -7.8078    2.6331   27.2522 C   0  0  0  0  0  0  0  0  0  0  0  0
   -9.1846    2.4724   27.5426 C   0  0  0  0  0  0  0  0  0  0  0  0
   -9.7470    1.1726   27.3754 C   0  0  0  0  0  0  0  0  0  0  0  0
  -11.1109    0.9747   27.7735 C   0  0  0  0  0  0  0  0  0  0  0  0
  -11.7967    2.1198   28.3156 C   0  0  0  0  0  0  0  0  0  0  0  0
  -11.1989    3.3734   28.4379 C   0  0  0  0  0  0  0  0  0  0  0  0
   -9.9100    3.5533   28.1288 C   0  0  0  0  0  0  0  0  0  0  0  0
   -9.3021    4.8181   28.2582 C   0  0  0  0  0  0  0  0  0  0  0  0
   -7.0180    1.5022   26.8244 C   0  0  0  0  0  0  0  0  0  0  0  0
   -5.9757    1.1831   27.4930 O   0  0  0  0  0  0  0  0  0  0  0  0
   -7.3216    0.7605   25.8750 O   0  0  0  0  0  0  0  0  0  0  0  0
  4 12  1  0
 12 13  2  0
 12 14  1  0
  3  2  1  0
  5  6  1  0
  6  7  2  0
  7  8  1  0
  8  9  2  0
  9 10  1  0
  1  2  2  0
  2 11  1  0
 11 10  2  0
 10  5  1  0
  5  4  2  0
  4  1  1  0
M  END
$$$$
