No_9249-complexes_sdf/6BKW-FPZ/2024-09-17-14-21-01/
     RDKit          3D

 22 24  0  0  0  0  0  0  0  0999 V2000
   -7.7129    4.2099   27.0854 C   0  0  0  0  0  0  0  0  0  0  0  0
   -8.9133    4.4736   27.0998 C   0  0  0  0  0  0  0  0  0  0  0  0
   -9.4643    5.5426   27.7628 C   0  0  0  0  0  0  0  0  0  0  0  0
   -6.8373    4.9942   27.9785 C   0  0  0  0  0  0  0  0  0  0  0  0
   -7.3717    6.0428   28.6744 C   0  0  0  0  0  0  0  0  0  0  0  0
   -8.6869    6.3937   28.5345 C   0  0  0  0  0  0  0  0  0  0  0  0
   -9.8077    3.6184   26.2213 C   0  0  0  0  0  0  0  0  0  0  0  0
   -9.9184    4.0252   24.8835 C   0  0  0  0  0  0  0  0  0  0  0  0
  -10.5346    3.2894   23.9116 C   0  0  0  0  0  0  0  0  0  0  0  0
  -11.0477    2.0486   24.2561 C   0  0  0  0  0  0  0  0  0  0  0  0
  -10.2679    2.3683   26.5309 C   0  0  0  0  0  0  0  0  0  0  0  0
  -10.0819    1.8160   27.9308 C   0  0  0  0  0  0  0  0  0  0  0  0
  -10.9075    1.5759   25.5818 C   0  0  0  0  0  0  0  0  0  0  0  0
  -10.6857    3.8567   22.5528 C   0  0  0  0  0  0  0  0  0  0  0  0
  -10.2515    3.2085   21.4427 C   0  0  0  0  0  0  0  0  0  0  0  0
  -10.2139    0.4555   28.1377 C   0  0  0  0  0  0  0  0  0  0  0  0
  -11.1196    0.2374   25.9460 C   0  0  0  0  0  0  0  0  0  0  0  0
  -10.8913   -0.2674   27.2212 C   0  0  0  0  0  0  0  0  0  0  0  0
  -11.2654    5.1719   22.3950 C   0  0  0  0  0  0  0  0  0  0  0  0
  -11.2330   -1.6473   27.5699 C   0  0  0  0  0  0  0  0  0  0  0  0
  -10.7955   -2.4179   28.1590 C   0  0  0  0  0  0  0  0  0  0  0  0
  -11.2825   -3.7476   28.5134 C   0  0  0  0  0  0  0  0  0  0  0  0
  2  7  1  0
  9 14  1  0
 14 15  1  0
 14 19  1  0
 18 20  1  0
 20 21  2  3
 21 22  1  0
 11 12  2  0
 12 16  1  0
 16 18  2  0
 18 17  1  0
 17 13  2  0
  1  2  2  0
  2  3  1  0
  3  6  2  0
  6  5  1  0
  5  4  2  0
  4  1  1  0
  7  8  2  0
  8  9  1  0
  9 10  2  0
 10 13  1  0
 13 11  1  0
 11  7  1  0
M  END
$$$$
