No_9664-complexes_sdf/6BKW-FPZ/2024-09-17-14-21-01/
     RDKit          3D

 18 20  0  0  0  0  0  0  0  0999 V2000
   -7.9040    3.9820   27.1177 C   0  0  0  0  0  0  0  0  0  0  0  0
   -9.0711    4.3164   27.0630 C   0  0  0  0  0  0  0  0  0  0  0  0
   -9.8698    3.9665   25.9495 C   0  0  0  0  0  0  0  0  0  0  0  0
   -7.4046    2.7946   26.4568 C   0  0  0  0  0  0  0  0  0  0  0  0
   -8.3645    2.1023   25.7152 C   0  0  0  0  0  0  0  0  0  0  0  0
  -11.1282    4.5710   25.7144 C   0  0  0  0  0  0  0  0  0  0  0  0
   -9.5827    2.7475   25.3307 C   0  0  0  0  0  0  0  0  0  0  0  0
   -6.7727    4.6547   28.3262 Cl  0  0  0  0  0  0  0  0  0  0  0  0
  -10.5553    2.3136   24.3684 C   0  0  0  0  0  0  0  0  0  0  0  0
  -10.3657    2.0221   23.3602 C   0  0  0  0  0  0  0  0  0  0  0  0
  -11.2752    1.5521   22.2427 C   0  0  0  0  0  0  0  0  0  0  0  0
  -12.5512    1.6333   22.5560 C   0  0  0  0  0  0  0  0  0  0  0  0
  -12.9012    2.1057   23.8040 C   0  0  0  0  0  0  0  0  0  0  0  0
  -11.9118    2.4918   24.7458 C   0  0  0  0  0  0  0  0  0  0  0  0
  -12.2697    3.6804   25.5719 C   0  0  2  0  0  0  0  0  0  0  0  0
  -13.5639    3.8874   26.0681 C   0  0  0  0  0  0  0  0  0  0  0  0
  -14.5262    4.4053   25.3885 C   0  0  0  0  0  0  0  0  0  0  0  0
  -15.7779    4.7590   25.9636 C   0  0  0  0  0  0  0  0  0  0  0  0
  3  6  1  0
  1  8  1  0
  7  9  1  0
 15  6  1  6
 14 15  1  0
 15 16  1  0
 16 17  2  3
 17 18  1  0
  1  2  2  0
  2  3  1  0
  3  7  2  0
  7  5  1  0
  5  4  2  0
  4  1  1  0
  9 10  2  0
 10 11  1  0
 11 12  2  0
 12 13  1  0
 13 14  2  0
 14  9  1  0
M  END
$$$$
