No_9394-complexes_sdf/6BKW-FPZ/2024-09-17-14-21-01/
     RDKit          3D

 19 21  0  0  0  0  0  0  0  0999 V2000
   -7.9040    3.9820   27.1177 C   0  0  0  0  0  0  0  0  0  0  0  0
   -8.2057    2.8231   26.8733 C   0  0  0  0  0  0  0  0  0  0  0  0
   -9.2962    2.4021   26.1155 C   0  0  0  0  0  0  0  0  0  0  0  0
   -8.7358    5.0662   26.5917 C   0  0  0  0  0  0  0  0  0  0  0  0
   -9.7618    4.7023   25.7546 C   0  0  0  0  0  0  0  0  0  0  0  0
  -10.5218    5.6825   25.1294 C   0  0  0  0  0  0  0  0  0  0  0  0
  -10.0270    3.3792   25.4689 C   0  0  0  0  0  0  0  0  0  0  0  0
   -7.3090    1.6728   27.4560 C   0  0  0  0  0  0  0  0  0  0  0  0
   -7.6594    0.3239   27.3633 C   0  0  0  0  0  0  0  0  0  0  0  0
   -6.7561   -0.6001   27.7946 C   0  0  0  0  0  0  0  0  0  0  0  0
   -5.4932   -0.1981   28.3046 C   0  0  0  0  0  0  0  0  0  0  0  0
   -5.1288    1.1635   28.2534 C   0  0  0  0  0  0  0  0  0  0  0  0
   -5.9492    2.0641   27.7998 C   0  0  0  0  0  0  0  0  0  0  0  0
   -4.5423   -1.2258   28.8332 C   0  0  0  0  0  0  0  0  0  0  0  0
   -3.5149   -1.2070   28.8334 N   0  0  0  0  0  0  0  0  0  0  0  0
   -5.2198   -2.3612   29.5680 C   0  0  0  0  0  0  0  0  0  0  0  0
   -4.3833   -3.2796   30.1248 C   0  0  0  0  0  0  0  0  0  0  0  0
   -2.5158   -2.0209   29.3845 C   0  0  0  0  0  0  0  0  0  0  0  0
   -3.0068   -3.1356   30.0406 C   0  0  0  0  0  0  0  0  0  0  0  0
  5  6  1  0
  2  8  1  0
 11 14  1  0
 14 15  2  0
 15 18  1  0
 18 19  2  0
 19 17  1  0
 17 16  2  0
 16 14  1  0
  1  2  2  0
  2  3  1  0
  3  7  2  0
  7  5  1  0
  5  4  2  0
  4  1  1  0
  8  9  2  0
  9 10  1  0
 10 11  2  0
 11 12  1  0
 12 13  2  0
 13  8  1  0
M  END
$$$$
