No_9550-complexes_sdf/6BKW-FPZ/2024-09-17-14-21-01/
     RDKit          3D

 19 21  0  0  0  0  0  0  0  0999 V2000
   -7.7129    4.2099   27.0854 C   0  0  0  0  0  0  0  0  0  0  0  0
   -7.7814    5.1722   27.8972 C   0  0  0  0  0  0  0  0  0  0  0  0
   -8.8776    3.8408   26.3416 C   0  0  0  0  0  0  0  0  0  0  0  0
   -8.9136    2.6330   25.5655 C   0  0  0  0  0  0  0  0  0  0  0  0
   -8.8361    6.1389   27.9032 C   0  0  0  0  0  0  0  0  0  0  0  0
  -10.0140    4.6007   26.4589 C   0  0  0  0  0  0  0  0  0  0  0  0
   -9.9695    5.8024   27.1801 C   0  0  0  0  0  0  0  0  0  0  0  0
   -8.2977    1.4728   26.1575 C   0  0  0  0  0  0  0  0  0  0  0  0
   -7.8535    1.5464   27.4265 C   0  0  0  0  0  0  0  0  0  0  0  0
   -8.2615    0.2982   25.3407 C   0  0  0  0  0  0  0  0  0  0  0  0
   -9.0747    0.1492   24.3758 C   0  0  0  0  0  0  0  0  0  0  0  0
   -9.6966    1.3664   23.7733 C   0  0  0  0  0  0  0  0  0  0  0  0
   -9.5973    2.5813   24.3955 C   0  0  0  0  0  0  0  0  0  0  0  0
  -10.3932    1.2866   22.4742 C   0  0  0  0  0  0  0  0  0  0  0  0
  -10.2577    0.2915   21.6632 C   0  0  0  0  0  0  0  0  0  0  0  0
  -10.8916    0.2079   20.3874 C   0  0  0  0  0  0  0  0  0  0  0  0
  -11.6328    1.3039   19.9572 C   0  0  0  0  0  0  0  0  0  0  0  0
  -11.0453    2.5007   21.9534 C   0  0  0  0  0  0  0  0  0  0  0  0
  -11.6969    2.4340   20.7649 C   0  0  0  0  0  0  0  0  0  0  0  0
  3  4  1  0
 12 14  1  0
  9  8  1  0
 14 15  2  0
 15 16  1  0
 16 17  2  0
 17 19  1  0
 19 18  2  0
 18 14  1  0
  1  2  2  0
  2  5  1  0
  5  7  2  0
  7  6  1  0
  6  3  2  0
  3  1  1  0
  4  8  2  0
  8 10  1  0
 10 11  2  0
 11 12  1  0
 12 13  2  0
 13  4  1  0
M  END
$$$$
