No_9761-complexes_sdf/6BKW-FPZ/2024-09-17-14-21-01/
     RDKit          3D

 14 15  0  0  0  0  0  0  0  0999 V2000
   -7.9040    3.9820   27.1177 C   0  0  0  0  0  0  0  0  0  0  0  0
   -7.8663    4.8694   27.9238 C   0  0  0  0  0  0  0  0  0  0  0  0
   -9.0491    3.8523   26.2542 C   0  0  0  0  0  0  0  0  0  0  0  0
   -8.7661    5.9491   27.9690 C   0  0  0  0  0  0  0  0  0  0  0  0
   -9.9295    4.8502   26.2323 C   0  0  0  0  0  0  0  0  0  0  0  0
   -9.8077    5.9288   27.0933 C   0  0  0  0  0  0  0  0  0  0  0  0
   -6.9996    2.9096   27.1565 O   0  0  0  0  0  0  0  0  0  0  0  0
   -7.3398    1.5998   26.9303 C   0  0  0  0  0  0  0  0  0  0  0  0
   -6.3550    0.7362   27.3720 C   0  0  0  0  0  0  0  0  0  0  0  0
   -5.1186    1.2194   27.9967 C   0  0  0  0  0  0  0  0  0  0  0  0
   -4.0987    0.3845   28.4211 C   0  0  0  0  0  0  0  0  0  0  0  0
   -4.2665   -0.9810   28.3067 C   0  0  0  0  0  0  0  0  0  0  0  0
   -5.4442   -1.4940   27.7654 C   0  0  0  0  0  0  0  0  0  0  0  0
   -6.4531   -0.6527   27.3117 C   0  0  0  0  0  0  0  0  0  0  0  0
  1  7  1  0
  7  8  1  0
  8  9  1  0
  1  2  2  0
  2  4  1  0
  4  6  2  0
  6  5  1  0
  5  3  2  0
  3  1  1  0
  9 10  2  0
 10 11  1  0
 11 12  2  0
 12 13  1  0
 13 14  2  0
 14  9  1  0
M  END
$$$$
