No_9743-complexes_sdf/6BKW-FPZ/2024-09-17-14-21-01/
     RDKit          3D

 30 34  0  0  0  0  0  0  0  0999 V2000
   -7.7129    4.2099   27.0854 C   0  0  0  0  0  0  0  0  0  0  0  0
   -8.2112    3.0637   26.9225 C   0  0  0  0  0  0  0  0  0  0  0  0
   -9.4446    2.8304   26.1868 C   0  0  0  0  0  0  0  0  0  0  0  0
   -6.6388    4.5347   28.1122 C   0  0  0  0  0  0  0  0  0  0  0  0
   -9.9448    3.9173   25.5585 C   0  0  0  0  0  0  0  0  0  0  0  0
   -9.3660    5.1901   25.7094 C   0  0  0  0  0  0  0  0  0  0  0  0
   -8.3659    5.4005   26.5436 C   0  0  0  0  0  0  0  0  0  0  0  0
  -11.1201    3.7822   24.6455 C   0  0  0  0  0  0  0  0  0  0  0  0
  -11.0081    4.0530   23.3053 C   0  0  0  0  0  0  0  0  0  0  0  0
  -12.0797    3.9188   22.4046 C   0  0  0  0  0  0  0  0  0  0  0  0
  -13.3197    3.5430   22.9129 C   0  0  0  0  0  0  0  0  0  0  0  0
  -12.4028    3.4366   25.0519 C   0  0  0  0  0  0  0  0  0  0  0  0
  -13.4534    3.3673   24.2689 C   0  0  0  0  0  0  0  0  0  0  0  0
   -6.6848    5.6771   28.6782 N   0  0  0  0  0  0  0  0  0  0  0  0
   -5.5540    3.7802   28.0150 N   0  0  0  0  0  0  0  0  0  0  0  0
  -14.8288    3.0129   24.7463 C   0  0  0  0  0  0  0  0  0  0  0  0
  -16.3517    2.9326   24.3587 Br  0  0  0  0  0  0  0  0  0  0  0  0
  -14.5603    2.5807   26.3011 C   0  0  2  0  0  0  0  0  0  0  0  0
  -15.5883    2.3182   27.0052 C   0  0  0  0  0  0  0  0  0  0  0  0
  -16.3905    2.9351   27.4334 C   0  0  0  0  0  0  0  0  0  0  0  0
  -16.2782    4.4083   27.4336 C   0  0  0  0  0  0  0  0  0  0  0  0
  -17.1071    5.3359   27.6121 C   0  0  0  0  0  0  0  0  0  0  0  0
  -16.7749    6.7800   27.7199 C   0  0  0  0  0  0  0  0  0  0  0  0
  -15.3627    7.1415   27.7150 C   0  0  0  0  0  0  0  0  0  0  0  0
  -14.4545    6.0959   27.5302 C   0  0  0  0  0  0  0  0  0  0  0  0
  -14.8322    4.8406   27.4756 C   0  0  0  0  0  0  0  0  0  0  0  0
  -13.1272    2.8059   26.5648 C   0  0  2  0  0  0  0  0  0  0  0  0
  -12.7557    3.8601   27.5068 C   0  0  0  0  0  0  0  0  0  0  0  0
  -13.6852    4.0890   27.5397 C   0  0  1  0  0  0  0  0  0  0  0  0
  -13.8871    3.6057   28.9810 F   0  0  0  0  0  0  0  0  0  0  0  0
  1  4  1  0
  5  8  1  0
  4 14  2  0
  4 15  1  0
 13 16  1  0
 16 17  1  0
 18 16  1  1
 18 19  1  0
 19 20  2  3
 20 21  1  0
 12 27  1  0
 18 27  1  0
 27 28  1  1
 26 29  1  0
 28 29  1  0
 29 30  1  1
 21 22  2  0
 22 23  1  0
 23 24  2  0
 24 25  1  0
 25 26  2  0
 26 21  1  0
  8  9  2  0
  9 10  1  0
 10 11  2  0
 11 13  1  0
 13 12  2  0
 12  8  1  0
  1  2  2  0
  2  3  1  0
  3  5  2  0
  5  6  1  0
  6  7  2  0
  7  1  1  0
M  END
$$$$
