No_9827-complexes_sdf/6BKW-FPZ/2024-09-17-14-21-01/
     RDKit          3D

 12 12  0  0  0  0  0  0  0  0999 V2000
   -7.2496    3.8871   27.4508 C   0  0  0  0  0  0  0  0  0  0  0  0
   -7.6161    2.7143   27.1523 C   0  0  0  0  0  0  0  0  0  0  0  0
   -7.1619    1.8631   27.5232 C   0  0  0  0  0  0  0  0  0  0  0  0
   -8.0036    5.1085   27.2100 C   0  0  0  0  0  0  0  0  0  0  0  0
   -9.0764    5.1562   26.4023 C   0  0  0  0  0  0  0  0  0  0  0  0
   -9.7518    6.3235   26.1896 C   0  0  0  0  0  0  0  0  0  0  0  0
   -9.5203    3.9603   25.8137 C   0  0  0  0  0  0  0  0  0  0  0  0
   -8.8330    2.6678   26.2690 C   0  0  0  0  0  0  0  0  0  0  0  0
   -7.5534    0.4155   27.3957 C   0  0  0  0  0  0  0  0  0  0  0  0
   -6.7200   -0.6515   27.6302 C   0  0  0  0  0  0  0  0  0  0  0  0
   -5.4397   -0.3693   28.1358 C   0  0  0  0  0  0  0  0  0  0  0  0
   -4.9168    0.9056   28.2560 C   0  0  0  0  0  0  0  0  0  0  0  0
  1  2  1  0
  2  3  2  3
  1  4  1  0
  4  5  1  0
  5  6  1  0
  5  7  1  0
  2  8  1  0
  7  8  1  0
  3  9  1  0
  9 10  2  3
 10 11  1  0
 11 12  2  0
M  END
$$$$
