No_9815-complexes_sdf/6BKW-FPZ/2024-09-17-14-21-01/
     RDKit          3D

 27 30  0  0  0  0  0  0  0  0999 V2000
   -7.9040    3.9820   27.1177 C   0  0  0  0  0  0  0  0  0  0  0  0
   -7.8663    4.8694   27.9238 C   0  0  0  0  0  0  0  0  0  0  0  0
   -7.4698    2.6989   27.4277 C   0  0  0  0  0  0  0  0  0  0  0  0
   -7.9683    1.5964   26.8266 C   0  0  0  0  0  0  0  0  0  0  0  0
   -8.9292    1.8436   25.8401 C   0  0  0  0  0  0  0  0  0  0  0  0
   -9.3947    3.0355   25.5467 C   0  0  0  0  0  0  0  0  0  0  0  0
   -8.9159    4.1263   26.2219 C   0  0  0  0  0  0  0  0  0  0  0  0
   -8.2885    6.2103   27.6476 N   0  0  0  0  0  0  0  0  0  0  0  0
   -9.1454    6.5055   26.6614 C   0  0  0  0  0  0  0  0  0  0  0  0
   -9.5058    5.4127   25.9024 C   0  0  0  0  0  0  0  0  0  0  0  0
   -7.4128    0.2689   27.0407 C   0  0  0  0  0  0  0  0  0  0  0  0
   -8.1434   -0.8118   27.0401 C   0  0  0  0  0  0  0  0  0  0  0  0
   -7.6474   -2.0333   27.4241 C   0  0  0  0  0  0  0  0  0  0  0  0
   -6.0676    0.1492   27.4427 C   0  0  0  0  0  0  0  0  0  0  0  0
   -5.5077   -1.0056   27.8826 C   0  0  0  0  0  0  0  0  0  0  0  0
   -6.3185   -2.1311   27.8735 C   0  0  0  0  0  0  0  0  0  0  0  0
   -4.1063   -1.0420   28.3541 C   0  0  2  0  0  0  0  0  0  0  0  0
   -3.9107   -0.6707   29.6833 C   0  0  2  0  0  0  0  0  0  0  0  0
   -4.1830    0.6272   30.0968 C   0  0  0  0  0  0  0  0  0  0  0  0
   -2.4324   -0.9887   30.1479 C   0  0  0  0  0  0  0  0  0  0  0  0
   -3.1516   -1.2923   27.3769 C   0  0  0  0  0  0  0  0  0  0  0  0
   -2.2515   -2.3451   30.3840 C   0  0  0  0  0  0  0  0  0  0  0  0
   -2.9849   -2.9193   31.2183 C   0  0  0  0  0  0  0  0  0  0  0  0
   -2.4845   -3.6962   32.1450 C   0  0  0  0  0  0  0  0  0  0  0  0
   -4.7608   -1.6757   30.6434 C   0  0  0  0  0  0  0  0  0  0  0  0
   -5.6311   -1.4148   31.4293 C   0  0  0  0  0  0  0  0  0  0  0  0
   -4.3079   -3.0019   30.7156 C   0  0  0  0  0  0  0  0  0  0  0  0
  4 11  1  0
 15 17  1  0
 17 18  1  0
 18 19  1  6
 18 20  1  0
 17 21  1  6
 20 22  1  0
 22 23  1  0
 23 24  2  0
 18 25  1  0
 25 26  2  0
 23 27  1  0
 25 27  1  0
  1  2  2  0
  2  8  1  0
  8  9  2  0
  9 10  1  0
 10  7  2  0
 11 12  2  0
 12 13  1  0
 13 16  2  0
 16 15  1  0
 15 14  2  0
 14 11  1  0
  1  3  1  0
  3  4  2  0
  4  5  1  0
  5  6  2  0
  6  7  1  0
  7  1  1  0
M  END
$$$$
