No_928-complexes_sdf/6BKW-FPZ/2024-09-17-14-21-01/
     RDKit          3D

 16 18  0  0  0  0  0  0  0  0999 V2000
   -7.9040    3.9820   27.1177 C   0  0  0  0  0  0  0  0  0  0  0  0
   -7.8663    4.8694   27.9238 C   0  0  0  0  0  0  0  0  0  0  0  0
   -9.0491    3.8523   26.2542 C   0  0  0  0  0  0  0  0  0  0  0  0
   -8.6019    5.9544   27.7203 C   0  0  0  0  0  0  0  0  0  0  0  0
   -9.7838    4.9247   26.0626 C   0  0  0  0  0  0  0  0  0  0  0  0
   -9.6083    6.0325   26.8808 C   0  0  0  0  0  0  0  0  0  0  0  0
   -7.0940    2.6762   27.3407 C   0  0  0  0  0  0  0  0  0  0  0  0
   -7.4717    1.3974   26.8831 C   0  0  0  0  0  0  0  0  0  0  0  0
   -6.6330    0.3703   27.0774 C   0  0  0  0  0  0  0  0  0  0  0  0
   -6.9838   -0.9534   26.7963 C   0  0  0  0  0  0  0  0  0  0  0  0
   -8.2877   -1.1358   26.2848 C   0  0  0  0  0  0  0  0  0  0  0  0
   -9.1503   -0.1081   26.1076 C   0  0  0  0  0  0  0  0  0  0  0  0
   -8.7798    1.1526   26.4825 C   0  0  0  0  0  0  0  0  0  0  0  0
   -9.4450    2.4869   25.7557 C   0  0  0  0  0  0  0  0  0  0  0  0
  -10.4474    2.3165   24.8488 C   0  0  0  0  0  0  0  0  0  0  0  0
  -11.7268    2.5137   25.1708 C   0  0  0  0  0  0  0  0  0  0  0  0
  1  7  1  0
  7  8  1  0
  3 14  1  0
 13 14  1  0
 14 15  1  0
 15 16  1  0
  1  2  2  0
  2  4  1  0
  4  6  2  0
  6  5  1  0
  5  3  2  0
  3  1  1  0
  8  9  2  0
  9 10  1  0
 10 11  2  0
 11 12  1  0
 12 13  2  0
 13  8  1  0
M  END
$$$$
