No_936-complexes_sdf/6BKW-FPZ/2024-09-17-14-21-01/
     RDKit          3D

 31 32  0  0  0  0  0  0  0  0999 V2000
   -7.9040    3.9820   27.1177 C   0  0  0  0  0  0  0  0  0  0  0  0
   -9.0711    4.3164   27.0630 C   0  0  0  0  0  0  0  0  0  0  0  0
   -9.8698    3.9665   25.9494 C   0  0  0  0  0  0  0  0  0  0  0  0
   -6.9515    4.6878   28.0207 C   0  0  0  0  0  0  0  0  0  0  0  0
  -11.1591    3.4833   26.0876 C   0  0  0  0  0  0  0  0  0  0  0  0
  -11.8798    3.8261   27.2705 C   0  0  0  0  0  0  0  0  0  0  0  0
  -11.1448    4.2455   28.4095 C   0  0  0  0  0  0  0  0  0  0  0  0
   -9.8033    4.3975   28.3535 C   0  0  0  0  0  0  0  0  0  0  0  0
   -5.7183    4.0923   28.1806 N   0  0  0  0  0  0  0  0  0  0  0  0
   -7.2979    5.7348   28.5516 O   0  0  0  0  0  0  0  0  0  0  0  0
  -13.3271    3.6169   27.3240 C   0  0  0  0  0  0  0  0  0  0  0  0
  -13.9917    3.4951   26.4087 C   0  0  0  0  0  0  0  0  0  0  0  0
  -15.4707    3.3827   26.4251 C   0  0  0  0  0  0  0  0  0  0  0  0
  -16.0647    3.5043   27.6665 C   0  0  0  0  0  0  0  0  0  0  0  0
  -14.0792    3.8634   28.6469 C   0  0  0  0  0  0  0  0  0  0  0  0
  -15.3254    3.7754   28.7984 C   0  0  0  0  0  0  0  0  0  0  0  0
  -16.1162    3.9510   30.3813 P   0  0  1  0  0  0  0  0  0  0  0  0
  -16.7033    4.9863   30.6647 O   0  0  0  0  0  0  0  0  0  0  0  0
  -17.1101    2.7142   30.4461 O   0  0  0  0  0  0  0  0  0  0  0  0
  -14.9064    3.5489   31.3542 O   0  0  0  0  0  0  0  0  0  0  0  0
  -14.3345    2.3643   31.5458 C   0  0  2  0  0  0  0  0  0  0  0  0
  -14.4407    1.6085   32.6403 C   0  0  0  0  0  0  0  0  0  0  0  0
  -15.6044    1.7309   33.1441 F   0  0  0  0  0  0  0  0  0  0  0  0
  -13.5150    2.0767   33.5596 F   0  0  0  0  0  0  0  0  0  0  0  0
  -12.8237    2.7341   31.3632 F   0  0  0  0  0  0  0  0  0  0  0  0
  -14.1613    0.2983   32.4047 F   0  0  0  0  0  0  0  0  0  0  0  0
  -16.2062    3.0910   25.2474 C   0  0  0  0  0  0  0  0  0  0  0  0
  -15.7889    3.2550   24.1927 N   0  0  0  0  0  0  0  0  0  0  0  0
  -16.0380    2.7313   23.0625 C   0  0  0  0  0  0  0  0  0  0  0  0
  -15.3553    3.0792   21.8429 C   0  0  0  0  0  0  0  0  0  0  0  0
  -15.2545    2.4798   20.7875 C   0  0  0  0  0  0  0  0  0  0  0  0
  1  2  1  0
  1  4  1  0
  4  9  2  0
  4 10  1  0
  6 11  1  0
 16 17  1  0
 17 18  2  0
 17 19  1  6
 17 20  1  0
 20 21  1  0
 21 22  1  0
 22 23  1  0
 22 24  1  0
 21 25  1  1
 22 26  1  0
 13 27  1  0
 27 28  2  3
 28 29  1  0
 29 30  2  3
 30 31  1  0
  2  3  2  0
  3  5  1  0
  5  6  2  0
  6  7  1  0
  7  8  2  0
  8  2  1  0
 11 12  2  0
 12 13  1  0
 13 14  2  0
 14 16  1  0
 16 15  2  0
 15 11  1  0
M  END
$$$$
