No_9362-complexes_sdf/6BKW-FPZ/2024-09-17-14-21-01/
     RDKit          3D

 20 22  0  0  0  0  0  0  0  0999 V2000
   -7.7129    4.2099   27.0854 C   0  0  0  0  0  0  0  0  0  0  0  0
   -7.7814    5.1722   27.8972 C   0  0  0  0  0  0  0  0  0  0  0  0
   -7.3155    2.9699   27.6145 C   0  0  0  0  0  0  0  0  0  0  0  0
   -7.6814    1.8188   26.9581 C   0  0  0  0  0  0  0  0  0  0  0  0
   -8.6377    1.9131   25.9324 C   0  0  0  0  0  0  0  0  0  0  0  0
   -9.1866    3.0673   25.6037 C   0  0  0  0  0  0  0  0  0  0  0  0
   -8.8394    4.1752   26.2513 C   0  0  0  0  0  0  0  0  0  0  0  0
   -8.1875    6.2925   27.8856 N   0  0  0  0  0  0  0  0  0  0  0  0
   -9.1842    6.6073   26.8917 C   0  0  0  0  0  0  0  0  0  0  0  0
   -9.5196    5.4766   26.0090 C   0  0  0  0  0  0  0  0  0  0  0  0
   -7.0105    0.5366   27.2415 C   0  0  0  0  0  0  0  0  0  0  0  0
   -7.6303   -0.6878   27.1035 C   0  0  0  0  0  0  0  0  0  0  0  0
   -5.6315    0.5576   27.6674 C   0  0  0  0  0  0  0  0  0  0  0  0
   -4.9304   -0.4609   28.1424 C   0  0  0  0  0  0  0  0  0  0  0  0
   -6.9433   -1.8322   27.6695 C   0  0  0  0  0  0  0  0  0  0  0  0
   -5.6355   -1.7037   28.1508 C   0  0  0  0  0  0  0  0  0  0  0  0
   -3.6122   -0.3334   28.7549 C   0  0  1  0  0  0  0  0  0  0  0  0
   -2.7361    0.3100   28.0861 N   0  0  0  0  0  0  0  0  0  0  0  0
   -3.2879   -0.7527   30.0953 C   0  0  0  0  0  0  0  0  0  0  0  0
   -3.7909    0.0286   31.1899 C   0  0  0  0  0  0  0  0  0  0  0  0
  4 11  1  0
 14 17  1  0
 17 18  1  1
 17 19  1  0
 19 20  1  0
 11 12  2  0
 12 15  1  0
 15 16  2  0
 16 14  1  0
 14 13  2  0
 13 11  1  0
  1  2  2  0
  2  8  1  0
  8  9  2  0
  9 10  1  0
 10  7  2  0
  1  3  1  0
  3  4  2  0
  4  5  1  0
  5  6  2  0
  6  7  1  0
  7  1  1  0
M  END
$$$$
