No_9124-complexes_sdf/6BKW-FPZ/2024-09-17-14-21-01/
     RDKit          3D

 29 32  0  0  0  0  0  0  0  0999 V2000
   -7.9040    3.9820   27.1177 C   0  0  0  0  0  0  0  0  0  0  0  0
   -9.0711    4.3164   27.0630 C   0  0  0  0  0  0  0  0  0  0  0  0
   -9.9692    3.7224   26.1073 C   0  0  0  0  0  0  0  0  0  0  0  0
   -7.4776    2.6994   26.6283 C   0  0  0  0  0  0  0  0  0  0  0  0
   -8.4406    1.9440   25.9776 C   0  0  0  0  0  0  0  0  0  0  0  0
   -9.6379    2.5001   25.6881 C   0  0  0  0  0  0  0  0  0  0  0  0
   -6.7701    4.7886   28.1891 Cl  0  0  0  0  0  0  0  0  0  0  0  0
  -10.5973    1.7372   24.8197 C   0  0  0  0  0  0  0  0  0  0  0  0
  -10.2488    1.3638   23.7034 C   0  0  0  0  0  0  0  0  0  0  0  0
   -8.8625    1.6368   23.2129 C   0  0  0  0  0  0  0  0  0  0  0  0
  -11.1134    0.6398   22.7187 C   0  0  0  0  0  0  0  0  0  0  0  0
  -10.8009    0.1579   21.6884 C   0  0  0  0  0  0  0  0  0  0  0  0
   -9.3833    0.3466   21.1574 C   0  0  0  0  0  0  0  0  0  0  0  0
   -8.5017    1.0362   21.9343 C   0  0  0  0  0  0  0  0  0  0  0  0
  -11.9879    2.3348   24.8048 C   0  0  0  0  0  0  0  0  0  0  0  0
  -12.9222    1.4086   25.0225 C   0  0  0  0  0  0  0  0  0  0  0  0
  -14.2944    1.8083   25.2400 C   0  0  0  0  0  0  0  0  0  0  0  0
  -14.5297    3.2194   25.3058 C   0  0  0  0  0  0  0  0  0  0  0  0
  -13.5142    4.1366   25.1367 C   0  0  0  0  0  0  0  0  0  0  0  0
  -12.2159    3.7112   25.0086 C   0  0  0  0  0  0  0  0  0  0  0  0
  -11.1107    4.4599   25.5540 N   0  0  0  0  0  0  0  0  0  0  0  0
   -9.5336    6.0082   27.5848 Cl  0  0  0  0  0  0  0  0  0  0  0  0
  -11.6492   -0.5412   20.7415 C   0  0  0  0  0  0  0  0  0  0  0  0
  -12.5501   -0.2922   20.1768 F   0  0  0  0  0  0  0  0  0  0  0  0
  -11.2502   -1.8710   20.5997 F   0  0  0  0  0  0  0  0  0  0  0  0
  -15.3932    0.8727   25.0796 C   0  0  0  0  0  0  0  0  0  0  0  0
  -16.4509    0.8741   25.3145 N   0  0  0  0  0  0  0  0  0  0  0  0
  -14.9829   -0.3425   24.5833 O   0  0  0  0  0  0  0  0  0  0  0  0
  -17.5480   -0.0473   25.2020 C   0  0  0  0  0  0  0  0  0  0  0  0
  1  7  1  0
  2 22  1  0
 12 23  1  0
 23 24  1  0
 23 25  1  0
 17 26  1  0
 26 27  1  0
 26 28  2  0
 27 29  1  0
  8  9  1  0
  6  8  2  0
  8 15  1  0
 20 21  1  0
 21  3  2  0
  1  2  2  0
  2  3  1  0
  3  6  1  0
  6  5  1  0
  5  4  2  0
  4  1  1  0
 15 16  2  0
 16 17  1  0
 17 18  2  0
 18 19  1  0
 19 20  2  0
 20 15  1  0
  9 10  2  0
 10 14  1  0
 14 13  2  0
 13 12  1  0
 12 11  2  0
 11  9  1  0
M  END
$$$$
