No_9402-complexes_sdf/6BKW-FPZ/2024-09-17-14-21-01/
     RDKit          3D

 31 34  0  0  0  0  0  0  0  0999 V2000
   -7.7129    4.2099   27.0854 C   0  0  0  0  0  0  0  0  0  0  0  0
   -8.2112    3.0637   26.9225 C   0  0  0  0  0  0  0  0  0  0  0  0
   -7.0021    4.5281   28.2396 C   0  0  0  0  0  0  0  0  0  0  0  0
   -9.4237    2.7810   26.2714 C   0  0  0  0  0  0  0  0  0  0  0  0
   -9.9782    1.4391   26.2525 C   0  0  0  0  0  0  0  0  0  0  0  0
   -9.2622    0.4320   26.8729 C   0  0  0  0  0  0  0  0  0  0  0  0
   -8.0745    0.6657   27.5462 C   0  0  0  0  0  0  0  0  0  0  0  0
   -7.4723    1.9739   27.6189 C   0  0  0  0  0  0  0  0  0  0  0  0
   -6.6290    5.4650   28.4264 C   0  0  0  0  0  0  0  0  0  0  0  0
   -7.4144    6.6066   27.8817 C   0  0  0  0  0  0  0  0  0  0  0  0
   -8.4396    5.4062   26.7110 C   0  0  0  0  0  0  0  0  0  0  0  0
   -8.2899    6.7567   26.9297 C   0  0  0  0  0  0  0  0  0  0  0  0
  -11.2168    1.1863   25.5439 C   0  0  0  0  0  0  0  0  0  0  0  0
  -12.1928    1.8955   25.5852 C   0  0  0  0  0  0  0  0  0  0  0  0
  -12.1617    3.0914   26.5004 C   0  0  0  0  0  0  0  0  0  0  0  0
  -12.5114    3.0380   27.6897 C   0  0  0  0  0  0  0  0  0  0  0  0
  -12.4035    4.1245   28.6730 C   0  0  0  0  0  0  0  0  0  0  0  0
  -12.8425    1.7358   28.2870 C   0  0  0  0  0  0  0  0  0  0  0  0
  -13.9720    1.5888   28.8276 C   0  0  0  0  0  0  0  0  0  0  0  0
  -14.2228    2.7133   29.8981 C   0  0  0  0  0  0  0  0  0  0  0  0
  -15.3599    2.6555   30.7943 C   0  0  0  0  0  0  0  0  0  0  0  0
  -13.5437    3.9481   29.7554 C   0  0  0  0  0  0  0  0  0  0  0  0
  -14.9773    3.0091   31.7972 Br  0  0  0  0  0  0  0  0  0  0  0  0
  -15.8375    1.3839   30.6614 F   0  0  0  0  0  0  0  0  0  0  0  0
  -16.3295    3.4058   30.1354 F   0  0  0  0  0  0  0  0  0  0  0  0
  -13.4116    1.7466   24.8841 C   0  0  0  0  0  0  0  0  0  0  0  0
  -13.5454    1.6895   23.8376 C   0  0  0  0  0  0  0  0  0  0  0  0
  -14.8185    1.4321   23.0830 C   0  0  0  0  0  0  0  0  0  0  0  0
  -15.9231    1.2919   23.8918 C   0  0  0  0  0  0  0  0  0  0  0  0
  -15.8367    1.3896   25.2716 C   0  0  0  0  0  0  0  0  0  0  0  0
  -14.6487    1.6353   25.8519 C   0  0  0  0  0  0  0  0  0  0  0  0
  1  2  1  0
  5 13  1  0
 13 14  2  3
 14 15  1  0
 20 21  1  0
 21 23  1  0
 21 24  1  0
 21 25  1  0
 14 26  1  0
 15 16  1  0
 16 17  2  0
 17 22  1  0
 22 20  2  0
 20 19  1  0
 19 18  2  0
 18 16  1  0
 26 27  2  0
 27 28  1  0
 28 29  2  0
 29 30  1  0
 30 31  2  0
 31 26  1  0
  1  3  2  0
  3  9  1  0
  9 10  2  0
 10 12  1  0
 12 11  2  0
 11  1  1  0
  2  4  2  0
  4  5  1  0
  5  6  2  0
  6  7  1  0
  7  8  2  0
  8  2  1  0
M  END
$$$$
