No_9493-complexes_sdf/6BKW-FPZ/2024-09-17-14-21-01/
     RDKit          3D

 19 21  0  0  0  0  0  0  0  0999 V2000
   -7.7129    4.2099   27.0854 C   0  0  0  0  0  0  0  0  0  0  0  0
   -7.7814    5.1722   27.8972 C   0  0  0  0  0  0  0  0  0  0  0  0
   -8.8998    3.8713   26.3707 C   0  0  0  0  0  0  0  0  0  0  0  0
   -8.9563    2.6796   25.5490 C   0  0  0  0  0  0  0  0  0  0  0  0
   -8.8131    6.1334   27.9344 C   0  0  0  0  0  0  0  0  0  0  0  0
   -9.9804    5.8121   27.1929 C   0  0  0  0  0  0  0  0  0  0  0  0
   -9.9861    4.6836   26.4532 C   0  0  0  0  0  0  0  0  0  0  0  0
   -9.8352    2.5435   24.5126 C   0  0  0  0  0  0  0  0  0  0  0  0
  -10.8691    3.5897   24.4503 C   0  0  0  0  0  0  0  0  0  0  0  0
  -10.9874    4.5302   25.4116 C   0  0  0  0  0  0  0  0  0  0  0  0
  -11.9507    3.3617   23.4536 C   0  0  0  0  0  0  0  0  0  0  0  0
  -13.0206    2.5842   23.6906 C   0  0  0  0  0  0  0  0  0  0  0  0
  -13.2192    1.8600   24.5445 C   0  0  0  0  0  0  0  0  0  0  0  0
  -14.4895    1.0835   24.6970 C   0  0  0  0  0  0  0  0  0  0  0  0
  -15.4120    1.2500   23.7122 C   0  0  0  0  0  0  0  0  0  0  0  0
  -15.2067    2.0869   22.6836 C   0  0  0  0  0  0  0  0  0  0  0  0
  -14.0241    2.8666   22.5817 C   0  0  0  0  0  0  0  0  0  0  0  0
  -11.6139    4.1824   22.2487 C   0  0  0  0  0  0  0  0  0  0  0  0
  -10.5602    5.1050   22.3672 C   0  0  0  0  0  0  0  0  0  0  0  0
  9 11  1  0
 11 12  1  0
 11 18  1  0
 18 19  1  0
 12 13  2  0
 13 14  1  0
 14 15  2  0
 15 16  1  0
 16 17  2  0
 17 12  1  0
  1  2  2  0
  2  5  1  0
  5  6  2  0
  6  7  1  0
  3  1  1  0
  3  4  2  0
  4  8  1  0
  8  9  2  0
  9 10  1  0
 10  7  2  0
  7  3  1  0
M  END
$$$$
