No_9034-complexes_sdf/6BKW-FPZ/2024-09-17-14-21-01/
     RDKit          3D

 10 11  0  0  0  0  0  0  0  0999 V2000
   -7.7129    4.2099   27.0854 C   0  0  0  0  0  0  0  0  0  0  0  0
   -8.2112    3.0637   26.9225 C   0  0  0  0  0  0  0  0  0  0  0  0
   -8.5108    5.3904   26.9436 C   0  0  0  0  0  0  0  0  0  0  0  0
   -9.7256    5.1955   26.3518 C   0  0  0  0  0  0  0  0  0  0  0  0
   -7.4704    1.8386   27.3272 C   0  0  0  0  0  0  0  0  0  0  0  0
   -9.5296    2.9550   26.4652 C   0  0  0  0  0  0  0  0  0  0  0  0
  -10.0753    1.5956   26.2382 C   0  0  0  0  0  0  0  0  0  0  0  0
  -10.2776    4.0123   26.1624 C   0  0  0  0  0  0  0  0  0  0  0  0
   -7.9157    0.5427   27.1324 C   0  0  0  0  0  0  0  0  0  0  0  0
   -9.2740    0.4460   26.6211 C   0  0  0  0  0  0  0  0  0  0  0  0
  1  2  2  0
  6  8  2  0
  8  4  1  0
  4  3  2  0
  3  1  1  0
  2  5  1  0
  5  9  2  0
  9 10  1  0
 10  7  2  0
  7  6  1  0
  6  2  1  0
M  END
$$$$
