No_940-complexes_sdf/6BKW-FPZ/2024-09-17-14-21-01/
     RDKit          3D

 25 28  0  0  0  0  0  0  0  0999 V2000
   -7.9040    3.9820   27.1177 C   0  0  0  0  0  0  0  0  0  0  0  0
   -7.8663    4.8694   27.9238 C   0  0  0  0  0  0  0  0  0  0  0  0
   -7.4698    2.6989   27.4277 C   0  0  0  0  0  0  0  0  0  0  0  0
   -7.9683    1.5964   26.8266 C   0  0  1  0  0  0  0  0  0  0  0  0
   -8.9447    1.7923   25.8533 C   0  0  0  0  0  0  0  0  0  0  0  0
   -9.4405    2.9988   25.5757 C   0  0  2  0  0  0  0  0  0  0  0  0
  -10.4397    3.2630   24.6146 C   0  0  0  0  0  0  0  0  0  0  0  0
   -8.9100    4.1245   26.1959 C   0  0  0  0  0  0  0  0  0  0  0  0
   -8.1498    6.2592   27.6587 N   0  0  0  0  0  0  0  0  0  0  0  0
   -8.6660    6.6606   26.6341 C   0  0  0  0  0  0  0  0  0  0  0  0
   -9.3522    5.4847   25.8494 C   0  0  0  0  0  0  0  0  0  0  0  0
  -10.1098    3.0801   23.2506 C   0  0  0  0  0  0  0  0  0  0  0  0
  -11.7273    3.5705   24.9691 C   0  0  0  0  0  0  0  0  0  0  0  0
  -10.9973    3.3800   22.2244 C   0  0  0  0  0  0  0  0  0  0  0  0
  -12.7310    3.8754   23.9689 C   0  0  0  0  0  0  0  0  0  0  0  0
  -12.3443    3.7793   22.6085 C   0  0  0  0  0  0  0  0  0  0  0  0
   -7.4034    0.2316   27.0384 C   0  0  0  0  0  0  0  0  0  0  0  0
   -6.1081    0.1273   27.5970 C   0  0  0  0  0  0  0  0  0  0  0  0
   -5.6305   -1.0052   28.1323 C   0  0  0  0  0  0  0  0  0  0  0  0
   -4.3556   -0.9956   28.7731 C   0  0  0  0  0  0  0  0  0  0  0  0
   -3.5866    0.1953   28.8296 C   0  0  0  0  0  0  0  0  0  0  0  0
   -4.1257    1.3581   28.3175 C   0  0  0  0  0  0  0  0  0  0  0  0
   -5.3369    1.3356   27.7560 C   0  0  0  0  0  0  0  0  0  0  0  0
   -9.2571    0.7196   25.1686 O   0  0  0  0  0  0  0  0  0  0  0  0
   -8.9861    7.8206   26.4349 F   0  0  0  0  0  0  0  0  0  0  0  0
  1  3  1  0
  3  4  1  0
  4  5  1  0
  5  6  1  0
  6  7  1  6
  6  8  1  0
  4 17  1  6
 17 18  1  0
  5 24  2  0
 10 25  1  0
 18 19  2  0
 19 20  1  0
 20 21  2  0
 21 22  1  0
 22 23  2  0
 23 18  1  0
  1  2  2  0
  2  9  1  0
  9 10  2  0
 10 11  1  0
 11  8  2  0
  8  1  1  0
  7 12  2  0
 12 14  1  0
 14 16  2  0
 16 15  1  0
 15 13  2  0
 13  7  1  0
M  END
$$$$
