No_9717-complexes_sdf/6BKW-FPZ/2024-09-17-14-21-01/
     RDKit          3D

 25 29  0  0  0  0  0  0  0  0999 V2000
   -7.9040    3.9820   27.1177 C   0  0  0  0  0  0  0  0  0  0  0  0
   -9.0711    4.3164   27.0630 C   0  0  0  0  0  0  0  0  0  0  0  0
   -9.5294    5.4517   27.7215 C   0  0  0  0  0  0  0  0  0  0  0  0
   -6.9328    4.7309   27.8881 C   0  0  0  0  0  0  0  0  0  0  0  0
   -7.3666    5.8455   28.5488 C   0  0  0  0  0  0  0  0  0  0  0  0
   -8.6669    6.2428   28.4199 C   0  0  0  0  0  0  0  0  0  0  0  0
  -10.0479    3.5083   26.2510 C   0  0  2  0  0  0  0  0  0  0  0  0
  -10.4851    2.3915   26.4094 C   0  0  0  0  0  0  0  0  0  0  0  0
  -10.0216    1.7601   27.7461 C   0  0  0  0  0  0  0  0  0  0  0  0
  -10.4623    0.3921   28.1012 C   0  0  0  0  0  0  0  0  0  0  0  0
  -11.1548   -0.2872   27.1440 C   0  0  0  0  0  0  0  0  0  0  0  0
  -11.5113    0.2265   25.9172 C   0  0  0  0  0  0  0  0  0  0  0  0
  -11.1317    1.4946   25.5994 C   0  0  0  0  0  0  0  0  0  0  0  0
  -10.4054    4.2047   24.9414 C   0  0  0  0  0  0  0  0  0  0  0  0
   -9.9523    4.2780   24.0082 C   0  0  0  0  0  0  0  0  0  0  0  0
  -10.4293    4.9189   22.7649 C   0  0  0  0  0  0  0  0  0  0  0  0
  -11.8562    5.0236   22.8742 C   0  0  0  0  0  0  0  0  0  0  0  0
  -11.9243    4.5124   24.7028 C   0  0  0  0  0  0  0  0  0  0  0  0
  -11.6196   -1.6582   27.5379 C   0  0  0  0  0  0  0  0  0  0  0  0
  -12.2088   -2.3250   27.0382 N   0  0  0  0  0  0  0  0  0  0  0  0
  -12.5389   -3.5862   27.5147 C   0  0  0  0  0  0  0  0  0  0  0  0
  -11.0853   -2.1198   28.8929 C   0  0  0  0  0  0  0  0  0  0  0  0
  -10.1619   -1.3818   29.6827 C   0  0  0  0  0  0  0  0  0  0  0  0
  -11.5797   -3.4465   29.0334 C   0  0  0  0  0  0  0  0  0  0  0  0
   -9.7941   -0.1062   29.2423 C   0  0  0  0  0  0  0  0  0  0  0  0
  7  2  1  6
  7 14  1  0
 14 15  2  0
 15 16  1  0
 16 17  2  0
 14 18  1  0
 17 18  1  0
 20 21  1  0
 21 24  2  0
 22 24  1  0
 20 19  1  0
  7  8  1  0
  1  2  2  0
  2  3  1  0
  3  6  2  0
  6  5  1  0
  5  4  2  0
  4  1  1  0
  8  9  2  0
  9 10  1  0
 11 12  1  0
 12 13  2  0
 13  8  1  0
 10 11  2  0
 11 19  1  0
 19 22  2  0
 22 23  1  0
 23 25  2  0
 25 10  1  0
M  END
$$$$
