No_957-complexes_sdf/6BKW-FPZ/2024-09-17-14-21-01/
     RDKit          3D

 40 43  0  0  0  0  0  0  0  0999 V2000
   -7.9040    3.9820   27.1177 C   0  0  0  0  0  0  0  0  0  0  0  0
   -9.0711    4.3164   27.0630 C   0  0  0  0  0  0  0  0  0  0  0  0
  -10.1653    4.5748   26.8816 C   0  0  0  0  0  0  0  0  0  0  0  0
   -6.6225    3.6124   27.5068 C   0  0  0  0  0  0  0  0  0  0  0  0
  -11.1414    3.5596   26.9250 C   0  0  0  0  0  0  0  0  0  0  0  0
  -12.3904    3.7654   26.9671 C   0  0  0  0  0  0  0  0  0  0  0  0
  -12.9167    4.7773   27.2889 C   0  0  0  0  0  0  0  0  0  0  0  0
  -12.0613    5.9682   27.6124 C   0  0  0  0  0  0  0  0  0  0  0  0
  -10.6478    5.7679   27.4477 C   0  0  0  0  0  0  0  0  0  0  0  0
   -5.6493    2.6989   27.7274 C   0  0  0  0  0  0  0  0  0  0  0  0
   -5.1447    1.4828   28.1624 C   0  0  0  0  0  0  0  0  0  0  0  0
   -4.0012    1.0706   28.2105 C   0  0  0  0  0  0  0  0  0  0  0  0
   -3.6408   -0.2468   28.7404 C   0  0  0  0  0  0  0  0  0  0  0  0
   -4.6743   -1.0000   29.2635 C   0  0  0  0  0  0  0  0  0  0  0  0
   -5.9821    0.3160   28.6957 C   0  0  0  0  0  0  0  0  0  0  0  0
  -14.3655    5.1955   27.4182 C   0  0  0  0  0  0  0  0  0  0  0  0
  -14.9334    5.7202   28.4662 N   0  0  0  0  0  0  0  0  0  0  0  0
  -14.7966    5.3090   29.6438 C   0  0  0  0  0  0  0  0  0  0  0  0
  -15.6613    6.9663   28.2957 C   0  0  0  0  0  0  0  0  0  0  0  0
  -15.8707    4.8438   30.3630 C   0  0  0  0  0  0  0  0  0  0  0  0
  -16.8199    6.0345   30.6298 C   0  0  0  0  0  0  0  0  0  0  0  0
  -16.9894    6.7659   29.2575 C   0  0  1  0  0  0  0  0  0  0  0  0
  -15.0983    4.9091   26.4201 O   0  0  0  0  0  0  0  0  0  0  0  0
   -5.0735   -2.1294   29.7131 C   0  0  0  0  0  0  0  0  0  0  0  0
   -6.1637   -2.2068   30.0096 F   0  0  0  0  0  0  0  0  0  0  0  0
   -4.2869   -2.2778   30.8672 F   0  0  0  0  0  0  0  0  0  0  0  0
   -4.6125   -3.0948   28.8649 F   0  0  0  0  0  0  0  0  0  0  0  0
  -17.5872    8.1700   29.4380 C   0  0  0  0  0  0  0  0  0  0  0  0
  -17.1806    8.8859   30.2349 O   0  0  0  0  0  0  0  0  0  0  0  0
  -18.5020    8.4688   28.5041 N   0  0  0  0  0  0  0  0  0  0  0  0
  -19.0529    7.6311   27.4707 C   0  0  0  0  0  0  0  0  0  0  0  0
  -19.2306    6.5665   27.5205 C   0  0  0  0  0  0  0  0  0  0  0  0
  -19.6163    5.8352   26.8393 C   0  0  0  0  0  0  0  0  0  0  0  0
  -19.9728    6.3119   25.5067 C   0  0  0  0  0  0  0  0  0  0  0  0
  -19.8296    7.6407   25.2788 C   0  0  0  0  0  0  0  0  0  0  0  0
  -19.3468    8.3773   26.3080 C   0  0  0  0  0  0  0  0  0  0  0  0
  -18.9880    9.9001   28.5093 C   0  0  0  0  0  0  0  0  0  0  0  0
  -18.5520   10.9417   28.3915 C   0  0  0  0  0  0  0  0  0  0  0  0
  -20.3962    9.9073   29.0982 C   0  0  0  0  0  0  0  0  0  0  0  0
  -20.9951   11.1149   29.2648 C   0  0  0  0  0  0  0  0  0  0  0  0
  1  2  3  0
  2  3  1  0
  1  4  1  0
  4 10  2  3
 10 11  1  0
 11 12  2  0
 12 13  1  0
 13 14  2  0
 11 15  1  0
 14 15  1  0
  7 16  1  0
 16 17  1  0
 17 18  1  0
 17 19  1  0
 18 20  1  0
 20 21  1  0
 19 22  1  0
 21 22  1  0
 16 23  2  0
 14 24  1  0
 24 25  1  0
 24 26  1  0
 24 27  1  0
 22 28  1  1
 28 29  2  0
 28 30  1  0
 30 31  1  0
 30 37  1  0
 37 38  2  0
 37 39  1  0
 39 40  2  0
 31 32  2  0
 32 33  1  0
 33 34  2  0
 34 35  1  0
 35 36  2  0
 36 31  1  0
  3  5  2  0
  5  6  1  0
  6  7  2  0
  7  8  1  0
  8  9  2  0
  9  3  1  0
M  END
$$$$
