No_9410-complexes_sdf/6BKW-FPZ/2024-09-17-14-21-01/
     RDKit          3D

 18 19  0  0  0  0  0  0  0  0999 V2000
   -7.2496    3.8871   27.4508 C   0  0  0  0  0  0  0  0  0  0  0  0
   -7.9379    4.9063   27.8518 C   0  0  0  0  0  0  0  0  0  0  0  0
   -9.3376    4.8647   27.7795 C   0  0  0  0  0  0  0  0  0  0  0  0
   -5.8493    3.7505   27.7216 C   0  0  0  0  0  0  0  0  0  0  0  0
   -7.8720    2.8044   26.7057 C   0  0  0  0  0  0  0  0  0  0  0  0
   -9.2841    2.8270   26.6183 C   0  0  0  0  0  0  0  0  0  0  0  0
   -9.9910    3.8719   27.1127 C   0  0  0  0  0  0  0  0  0  0  0  0
   -9.9043    1.6802   25.9531 C   0  0  0  0  0  0  0  0  0  0  0  0
  -10.1617    0.6307   26.4654 C   0  0  0  0  0  0  0  0  0  0  0  0
  -10.1468    1.8441   24.5444 C   0  0  0  0  0  0  0  0  0  0  0  0
  -10.1257    3.0934   23.8821 C   0  0  0  0  0  0  0  0  0  0  0  0
  -10.1670    0.4167   27.8418 C   0  0  0  0  0  0  0  0  0  0  0  0
  -10.4756    3.2870   22.5612 C   0  0  0  0  0  0  0  0  0  0  0  0
  -10.5077    2.1635   21.7411 C   0  0  0  0  0  0  0  0  0  0  0  0
  -10.2410    0.7955   23.6656 C   0  0  0  0  0  0  0  0  0  0  0  0
  -10.3964    0.9145   22.3004 C   0  0  0  0  0  0  0  0  0  0  0  0
  -10.5155   -0.8052   28.5125 C   0  0  0  0  0  0  0  0  0  0  0  0
  -10.7032   -0.8974   29.7048 C   0  0  0  0  0  0  0  0  0  0  0  0
  1  4  1  0
  6  8  1  0
  8  9  2  3
  8 10  1  0
  9 12  1  0
 12 17  2  3
 17 18  1  0
 10 11  2  0
 11 13  1  0
 13 14  2  0
 14 16  1  0
 16 15  2  0
 15 10  1  0
  1  2  2  0
  2  3  1  0
  3  7  2  0
  7  6  1  0
  6  5  2  0
  5  1  1  0
M  END
$$$$
