No_9866-complexes_sdf/6BKW-FPZ/2024-09-17-14-21-01/
     RDKit          3D

 21 23  0  0  0  0  0  0  0  0999 V2000
   -7.7129    4.2099   27.0854 C   0  0  0  0  0  0  0  0  0  0  0  0
   -8.9133    4.4736   27.0998 C   0  0  2  0  0  0  0  0  0  0  0  0
   -9.7135    3.9633   26.0300 C   0  0  0  0  0  0  0  0  0  0  0  0
   -6.8655    4.8824   28.1822 C   0  0  0  0  0  0  0  0  0  0  0  0
  -10.8856    4.5824   25.6430 C   0  0  0  0  0  0  0  0  0  0  0  0
   -7.6664    5.7849   28.7962 N   0  0  0  0  0  0  0  0  0  0  0  0
   -8.8934    5.5511   27.9459 C   0  0  0  0  0  0  0  0  0  0  0  0
  -11.7566    4.0566   24.6254 C   0  0  0  0  0  0  0  0  0  0  0  0
  -11.3129    2.8894   23.9740 C   0  0  0  0  0  0  0  0  0  0  0  0
  -10.1595    2.2702   24.3585 C   0  0  0  0  0  0  0  0  0  0  0  0
   -9.3211    2.7782   25.3932 C   0  0  0  0  0  0  0  0  0  0  0  0
  -12.1753    2.3386   22.9344 C   0  0  0  0  0  0  0  0  0  0  0  0
  -13.1920    1.7687   22.9443 N   0  0  0  0  0  0  0  0  0  0  0  0
  -13.6793    1.2945   24.0036 C   0  0  0  0  0  0  0  0  0  0  0  0
  -14.4804    1.1108   24.6220 C   0  0  0  0  0  0  0  0  0  0  0  0
  -14.6631    0.3743   25.8520 C   0  0  0  0  0  0  0  0  0  0  0  0
  -13.5191   -0.1811   26.3822 C   0  0  0  0  0  0  0  0  0  0  0  0
  -12.3258   -0.0635   25.7817 C   0  0  0  0  0  0  0  0  0  0  0  0
  -12.3045    0.6304   24.6676 C   0  0  0  0  0  0  0  0  0  0  0  0
  -14.1653    1.7765   21.8182 C   0  0  0  0  0  0  0  0  0  0  0  0
  -11.7962    3.0389   21.7997 O   0  0  0  0  0  0  0  0  0  0  0  0
  1  2  1  0
  1  4  1  0
  4  6  2  0
  2  7  1  0
  6  7  1  0
  9 12  1  0
 12 13  1  0
 13 14  1  0
 13 20  1  0
 12 21  2  0
  2  3  1  6
 14 15  2  0
 15 16  1  0
 16 17  2  0
 17 18  1  0
 18 19  2  0
 19 14  1  0
  3  5  2  0
  5  8  1  0
  8  9  2  0
  9 10  1  0
 10 11  2  0
 11  3  1  0
M  END
$$$$
