No_9788-complexes_sdf/6BKW-FPZ/2024-09-17-14-21-01/
     RDKit          3D

 40 46  0  0  0  0  0  0  0  0999 V2000
   -7.7129    4.2099   27.0854 C   0  0  0  0  0  0  0  0  0  0  0  0
   -7.7814    5.1722   27.8972 C   0  0  0  0  0  0  0  0  0  0  0  0
   -7.3155    2.9699   27.6145 C   0  0  0  0  0  0  0  0  0  0  0  0
   -7.6814    1.8188   26.9581 C   0  0  0  0  0  0  0  0  0  0  0  0
   -8.6377    1.9131   25.9324 C   0  0  0  0  0  0  0  0  0  0  0  0
   -9.1866    3.0673   25.6037 C   0  0  0  0  0  0  0  0  0  0  0  0
   -8.8394    4.1752   26.2513 C   0  0  0  0  0  0  0  0  0  0  0  0
   -8.2486    6.4747   27.5719 N   0  0  0  0  0  0  0  0  0  0  0  0
   -9.1525    6.6854   26.5919 C   0  0  0  0  0  0  0  0  0  0  0  0
   -9.4607    5.4864   25.8772 C   0  0  0  0  0  0  0  0  0  0  0  0
   -7.0245    0.5340   27.2725 C   0  0  1  0  0  0  0  0  0  0  0  0
   -5.9049    0.4646   27.9517 N   0  0  0  0  0  0  0  0  0  0  0  0
   -5.3963   -0.7563   28.2849 C   0  0  1  0  0  0  0  0  0  0  0  0
   -4.1127   -0.7333   29.0111 C   0  0  1  0  0  0  0  0  0  0  0  0
   -3.8455   -1.5902   29.9602 C   0  0  0  0  0  0  0  0  0  0  0  0
   -7.8006   -0.6483   27.3196 C   0  0  0  0  0  0  0  0  0  0  0  0
   -6.0062   -1.9044   28.1642 C   0  0  2  0  0  0  0  0  0  0  0  0
   -7.3161   -1.8296   27.6940 C   0  0  1  0  0  0  0  0  0  0  0  0
   -2.5962   -1.5274   30.6684 C   0  0  0  0  0  0  0  0  0  0  0  0
   -2.4000   -2.1833   31.7741 C   0  0  0  0  0  0  0  0  0  0  0  0
   -3.3602   -3.1005   32.2113 C   0  0  0  0  0  0  0  0  0  0  0  0
   -4.5128   -3.1846   31.5468 C   0  0  0  0  0  0  0  0  0  0  0  0
   -4.8013   -2.3768   30.5101 C   0  0  0  0  0  0  0  0  0  0  0  0
   -2.8823   -0.5819   27.9568 C   0  0  0  0  0  0  0  0  0  0  0  0
   -2.8201    0.8298   27.6430 C   0  0  0  0  0  0  0  0  0  0  0  0
   -6.0696   -2.6096   29.7083 C   0  0  0  0  0  0  0  0  0  0  0  0
   -2.1493    1.0922   26.3152 C   0  0  0  0  0  0  0  0  0  0  0  0
   -5.2635   -2.7948   27.2590 C   0  0  0  0  0  0  0  0  0  0  0  0
   -8.2510   -2.9229   27.6542 C   0  0  0  0  0  0  0  0  0  0  0  0
   -5.3340   -4.1597   27.4652 C   0  0  0  0  0  0  0  0  0  0  0  0
   -4.7790   -4.8752   26.9840 C   0  0  0  0  0  0  0  0  0  0  0  0
   -3.7875   -4.5888   25.9631 C   0  0  0  0  0  0  0  0  0  0  0  0
   -3.6569   -3.2397   25.5976 C   0  0  0  0  0  0  0  0  0  0  0  0
   -4.3725   -2.3513   26.3488 C   0  0  0  0  0  0  0  0  0  0  0  0
   -9.0749   -3.1626   28.6163 C   0  0  0  0  0  0  0  0  0  0  0  0
   -8.5558   -3.4150   26.3312 C   0  0  0  0  0  0  0  0  0  0  0  0
   -9.9877   -4.1873   28.6435 C   0  0  0  0  0  0  0  0  0  0  0  0
   -9.4773   -4.4803   26.2621 C   0  0  0  0  0  0  0  0  0  0  0  0
  -10.2292   -4.8087   27.3756 C   0  0  0  0  0  0  0  0  0  0  0  0
  -11.1268   -5.8032   27.2282 O   0  0  0  0  0  0  0  0  0  0  0  0
 11  4  1  1
 13 12  1  1
 13 14  1  0
 11 16  1  0
 13 17  1  0
 16 18  1  0
 17 18  1  0
 14 24  1  6
 24 25  1  0
 17 26  1  0
 23 26  1  0
 25 27  2  0
 17 28  1  6
 18 29  1  1
 39 40  1  0
 12 11  1  0
 14 15  1  0
  1  2  2  0
  2  8  1  0
  8  9  2  0
  9 10  1  0
 10  7  2  0
 29 35  2  0
 35 37  1  0
 37 39  2  0
 39 38  1  0
 38 36  2  0
 36 29  1  0
  1  3  1  0
  3  4  2  0
  4  5  1  0
  5  6  2  0
  6  7  1  0
  7  1  1  0
 28 30  2  0
 30 31  1  0
 31 32  2  0
 32 33  1  0
 33 34  2  0
 34 28  1  0
 15 19  2  0
 19 20  1  0
 20 21  2  0
 21 22  1  0
 22 23  2  0
 23 15  1  0
M  END
$$$$
