No_937-complexes_sdf/6BKW-FPZ/2024-09-17-14-21-01/
     RDKit          3D

 17 18  0  0  0  0  0  0  0  0999 V2000
   -7.7129    4.2099   27.0854 C   0  0  0  0  0  0  0  0  0  0  0  0
   -8.2112    3.0637   26.9225 C   0  0  0  0  0  0  0  0  0  0  0  0
   -9.4446    2.8304   26.1868 C   0  0  0  0  0  0  0  0  0  0  0  0
   -8.4697    5.3956   26.7238 C   0  0  0  0  0  0  0  0  0  0  0  0
   -9.6172    5.2111   25.9513 C   0  0  0  0  0  0  0  0  0  0  0  0
  -10.0424    3.9782   25.6873 C   0  0  0  0  0  0  0  0  0  0  0  0
   -7.3903    1.6267   27.5078 Cl  0  0  0  0  0  0  0  0  0  0  0  0
   -7.9459    6.7347   26.9869 C   0  0  2  0  0  0  0  0  0  0  0  0
   -7.1261    6.7859   27.9646 F   0  0  0  0  0  0  0  0  0  0  0  0
   -8.3815    7.9131   26.4428 C   0  0  0  0  0  0  0  0  0  0  0  0
  -11.2707    3.8154   24.8817 C   0  0  0  0  0  0  0  0  0  0  0  0
  -11.1015    3.2354   23.6399 C   0  0  0  0  0  0  0  0  0  0  0  0
  -10.6400    2.0840   23.4020 C   0  0  0  0  0  0  0  0  0  0  0  0
  -10.3327    1.5772   22.0920 C   0  0  0  0  0  0  0  0  0  0  0  0
  -10.5354    2.4360   21.0032 C   0  0  0  0  0  0  0  0  0  0  0  0
  -11.2777    4.1205   22.4215 C   0  0  0  0  0  0  0  0  0  0  0  0
  -10.9922    3.7269   21.2062 C   0  0  0  0  0  0  0  0  0  0  0  0
  2  7  1  0
  4  8  1  0
  8  9  1  0
  8 10  1  1
  6 11  1  0
 11 12  1  0
 12 13  2  0
 13 14  1  0
 14 15  2  0
 15 17  1  0
 17 16  2  0
 16 12  1  0
  1  2  2  0
  2  3  1  0
  3  6  2  0
  6  5  1  0
  5  4  2  0
  4  1  1  0
M  END
$$$$
