No_9067-complexes_sdf/6BKW-FPZ/2024-09-17-14-21-01/
     RDKit          3D

 40 44  0  0  0  0  0  0  0  0999 V2000
   -7.7129    4.2099   27.0854 C   0  0  0  0  0  0  0  0  0  0  0  0
   -7.7814    5.1722   27.8972 C   0  0  0  0  0  0  0  0  0  0  0  0
   -8.7889    3.2468   27.2220 C   0  0  0  0  0  0  0  0  0  0  0  0
   -8.5940    1.9755   26.6525 C   0  0  0  0  0  0  0  0  0  0  0  0
   -9.4990    1.3566   25.9026 C   0  0  0  0  0  0  0  0  0  0  0  0
   -9.0214    5.8041   28.2929 C   0  0  0  0  0  0  0  0  0  0  0  0
   -9.8944    3.6512   27.9113 C   0  0  0  0  0  0  0  0  0  0  0  0
  -10.0302    4.8964   28.4608 C   0  0  0  0  0  0  0  0  0  0  0  0
   -9.2379    0.1214   25.2943 C   0  0  0  0  0  0  0  0  0  0  0  0
   -7.9871   -0.4385   25.4445 C   0  0  0  0  0  0  0  0  0  0  0  0
   -7.0392    0.1105   26.2748 C   0  0  0  0  0  0  0  0  0  0  0  0
   -7.2706    1.3512   26.8968 C   0  0  0  0  0  0  0  0  0  0  0  0
  -10.9384    2.7969   27.9790 F   0  0  0  0  0  0  0  0  0  0  0  0
   -7.7281   -1.8006   24.8861 C   0  0  0  0  0  0  0  0  0  0  0  0
   -7.3418   -1.9467   23.8335 O   0  0  0  0  0  0  0  0  0  0  0  0
   -7.8903   -2.8283   25.6876 O   0  0  0  0  0  0  0  0  0  0  0  0
   -5.8621   -0.4464   26.5285 O   0  0  0  0  0  0  0  0  0  0  0  0
   -5.4425   -0.8157   27.8043 C   0  0  0  0  0  0  0  0  0  0  0  0
   -4.2679   -1.5509   27.9063 C   0  0  0  0  0  0  0  0  0  0  0  0
   -3.4284   -1.5010   27.0356 C   0  0  0  0  0  0  0  0  0  0  0  0
   -2.1112   -2.1695   27.0928 C   0  0  0  0  0  0  0  0  0  0  0  0
   -1.7954   -2.6987   28.3764 C   0  0  0  0  0  0  0  0  0  0  0  0
   -2.7049   -2.6111   29.4000 C   0  0  0  0  0  0  0  0  0  0  0  0
   -3.9142   -1.9661   29.2012 C   0  0  0  0  0  0  0  0  0  0  0  0
   -4.8505   -1.8763   30.3341 C   0  0  0  0  0  0  0  0  0  0  0  0
   -4.5606   -0.9095   31.3534 C   0  0  0  0  0  0  0  0  0  0  0  0
   -5.4703   -0.7786   32.4405 C   0  0  0  0  0  0  0  0  0  0  0  0
   -6.5490   -1.6544   32.5760 C   0  0  0  0  0  0  0  0  0  0  0  0
   -6.8192   -2.5494   31.5552 C   0  0  0  0  0  0  0  0  0  0  0  0
   -5.9824   -2.6597   30.4513 C   0  0  0  0  0  0  0  0  0  0  0  0
   -3.4185   -0.0086   31.2884 C   0  0  0  0  0  0  0  0  0  0  0  0
   -6.3503   -3.5757   29.4226 C   0  0  0  0  0  0  0  0  0  0  0  0
   -7.1744   -3.4056   28.6356 O   0  0  0  0  0  0  0  0  0  0  0  0
   -5.8560   -4.8288   29.6158 N   0  0  0  0  0  0  0  0  0  0  0  0
   -6.0603   -5.9181   28.6227 C   0  0  0  0  0  0  0  0  0  0  0  0
   -5.1547   -6.7655   28.5520 C   0  0  0  0  0  0  0  0  0  0  0  0
   -5.0428   -7.5651   27.4645 C   0  0  0  0  0  0  0  0  0  0  0  0
   -6.0423   -7.5200   26.4507 C   0  0  0  0  0  0  0  0  0  0  0  0
   -7.0119   -6.5064   26.5443 C   0  0  0  0  0  0  0  0  0  0  0  0
   -6.9409   -5.6310   27.5966 C   0  0  0  0  0  0  0  0  0  0  0  0
  3  4  1  0
  7 13  1  0
 10 14  1  0
 14 15  2  0
 14 16  1  0
 11 17  1  0
 17 18  1  0
 24 25  1  0
 26 31  1  0
 30 32  1  0
 32 33  2  0
 32 34  1  0
 34 35  1  0
 18 19  1  0
 25 26  2  0
 26 27  1  0
 27 28  2  0
 28 29  1  0
 29 30  2  0
 30 25  1  0
 35 36  2  0
 36 37  1  0
 37 38  2  0
 38 39  1  0
 39 40  2  0
 40 35  1  0
  4  5  2  0
  5  9  1  0
  9 10  2  0
 10 11  1  0
 11 12  2  0
 12  4  1  0
 19 20  2  0
 20 21  1  0
 21 22  2  0
 22 23  1  0
 23 24  2  0
 24 19  1  0
  1  2  2  0
  2  6  1  0
  6  8  2  0
  8  7  1  0
  7  3  2  0
  3  1  1  0
M  END
$$$$
