No_9423-complexes_sdf/6BKW-FPZ/2024-09-17-14-21-01/
     RDKit          3D

 40 44  0  0  0  0  0  0  0  0999 V2000
   -7.7129    4.2099   27.0854 C   0  0  0  0  0  0  0  0  0  0  0  0
   -7.7814    5.1722   27.8972 C   0  0  0  0  0  0  0  0  0  0  0  0
   -7.3155    2.9700   27.6145 C   0  0  0  0  0  0  0  0  0  0  0  0
   -6.9774    2.0071   26.9623 C   0  0  0  0  0  0  0  0  0  0  0  0
   -7.9586    1.6186   25.9316 C   0  0  0  0  0  0  0  0  0  0  0  0
   -8.8776    2.5976   25.5619 C   0  0  0  0  0  0  0  0  0  0  0  0
   -8.7887    3.9241   26.1465 C   0  0  0  0  0  0  0  0  0  0  0  0
   -8.1863    6.5748   27.3942 C   0  0  0  0  0  0  0  0  0  0  0  0
   -9.4372    6.7267   26.8745 C   0  0  0  0  0  0  0  0  0  0  0  0
   -9.7265    2.4375   24.4011 C   0  0  0  0  0  0  0  0  0  0  0  0
  -10.6423    3.4263   24.0182 C   0  0  0  0  0  0  0  0  0  0  0  0
  -11.4674    3.2582   22.9113 C   0  0  0  0  0  0  0  0  0  0  0  0
  -11.3605    2.1250   22.1387 C   0  0  0  0  0  0  0  0  0  0  0  0
   -9.6921    1.3173   23.5620 C   0  0  0  0  0  0  0  0  0  0  0  0
  -10.4129    1.1687   22.4698 C   0  0  0  0  0  0  0  0  0  0  0  0
   -6.1683    0.8305   27.4549 C   0  0  2  0  0  0  0  0  0  0  0  0
   -6.3269    0.1233   28.4369 C   0  0  0  0  0  0  0  0  0  0  0  0
   -5.2914   -0.7712   28.9575 C   0  0  0  0  0  0  0  0  0  0  0  0
   -5.4013   -1.4798   30.1701 C   0  0  0  0  0  0  0  0  0  0  0  0
   -4.7780    0.6292   27.0362 C   0  0  0  0  0  0  0  0  0  0  0  0
   -4.2496   -0.2578   27.9704 C   0  0  0  0  0  0  0  0  0  0  0  0
   -4.7471   -2.4354   30.4535 C   0  0  0  0  0  0  0  0  0  0  0  0
   -4.8622   -3.1107   31.7935 C   0  0  0  0  0  0  0  0  0  0  0  0
   -5.3179   -2.6840   32.5762 C   0  0  0  0  0  0  0  0  0  0  0  0
   -6.1261   -1.3958   32.5598 C   0  0  0  0  0  0  0  0  0  0  0  0
   -6.0120   -0.7491   31.3360 C   0  0  0  0  0  0  0  0  0  0  0  0
   -7.1889    7.5793   27.1726 C   0  0  0  0  0  0  0  0  0  0  0  0
   -2.8892   -0.8852   28.0187 C   0  0  1  0  0  0  0  0  0  0  0  0
   -2.0696   -0.1063   27.3755 N   0  0  0  0  0  0  0  0  0  0  0  0
   -2.4806   -0.9031   29.3497 F   0  0  0  0  0  0  0  0  0  0  0  0
   -2.9521   -2.2254   27.4485 C   0  0  0  0  0  0  0  0  0  0  0  0
   -2.7888   -2.3252   26.1853 C   0  0  0  0  0  0  0  0  0  0  0  0
   -2.9285   -3.6111   25.5985 C   0  0  0  0  0  0  0  0  0  0  0  0
   -3.2452   -4.6184   26.3412 C   0  0  0  0  0  0  0  0  0  0  0  0
   -3.3973   -4.5172   27.7286 C   0  0  0  0  0  0  0  0  0  0  0  0
   -3.2416   -3.3104   28.2818 C   0  0  0  0  0  0  0  0  0  0  0  0
  -10.3087   -0.0723   21.6432 C   0  0  0  0  0  0  0  0  0  0  0  0
   -9.1377   -0.7283   21.6929 C   0  0  0  0  0  0  0  0  0  0  0  0
   -8.9373   -1.9171   21.0111 C   0  0  0  0  0  0  0  0  0  0  0  0
   -9.9148   -2.3109   20.0634 C   0  0  0  0  0  0  0  0  0  0  0  0
  1  2  1  0
  2  8  1  0
  8  9  2  0
  6 10  1  0
 16  4  1  1
 16 17  1  0
 17 18  2  0
 18 19  1  0
 16 20  1  0
 18 21  1  0
 20 21  2  0
  8 27  1  0
 21 28  1  0
 28 29  1  6
 28 30  1  0
 28 31  1  0
 15 37  1  0
 37 38  2  3
 38 39  1  0
 39 40  2  0
 31 32  2  0
 32 33  1  0
 33 34  2  0
 34 35  1  0
 35 36  2  0
 36 31  1  0
 19 22  2  0
 22 23  1  0
 23 24  2  0
 24 25  1  0
 25 26  2  0
 26 19  1  0
 10 11  2  0
 11 12  1  0
 12 13  2  0
 13 15  1  0
 15 14  2  0
 14 10  1  0
  1  3  2  0
  3  4  1  0
  4  5  2  0
  5  6  1  0
  6  7  2  0
  7  1  1  0
M  END
$$$$
