No_9152-complexes_sdf/6BKW-FPZ/2024-09-17-14-21-01/
     RDKit          3D

 25 29  0  0  0  0  0  0  0  0999 V2000
   -7.7129    4.2099   27.0854 C   0  0  0  0  0  0  0  0  0  0  0  0
   -7.7814    5.1722   27.8972 C   0  0  0  0  0  0  0  0  0  0  0  0
   -7.2983    2.9533   27.5684 C   0  0  2  0  0  0  0  0  0  0  0  0
   -6.0337    2.9060   27.9106 C   0  0  0  0  0  0  0  0  0  0  0  0
   -5.5001    1.6916   28.2615 N   0  0  0  0  0  0  0  0  0  0  0  0
   -6.2443    0.6484   27.9315 C   0  0  1  0  0  0  0  0  0  0  0  0
   -7.6720    1.5642   27.2136 C   0  0  1  0  0  0  0  0  0  0  0  0
   -8.6962    4.2460   25.9897 C   0  0  0  0  0  0  0  0  0  0  0  0
   -8.5718    6.3878   27.5054 C   0  0  0  0  0  0  0  0  0  0  0  0
   -9.6882    4.8781   26.1510 C   0  0  0  0  0  0  0  0  0  0  0  0
   -9.5962    6.2445   26.6830 C   0  0  0  0  0  0  0  0  0  0  0  0
   -8.6877    0.9234   26.7429 C   0  0  0  0  0  0  0  0  0  0  0  0
   -8.8807   -0.3040   27.0140 C   0  0  0  0  0  0  0  0  0  0  0  0
  -10.0899   -0.9863   26.5609 C   0  0  0  0  0  0  0  0  0  0  0  0
  -10.9410   -0.2146   25.8154 C   0  0  0  0  0  0  0  0  0  0  0  0
  -10.6962    1.0754   25.4987 C   0  0  0  0  0  0  0  0  0  0  0  0
   -9.5524    1.6863   25.9657 C   0  0  0  0  0  0  0  0  0  0  0  0
   -4.1948    1.3681   28.8067 C   0  0  0  0  0  0  0  0  0  0  0  0
   -3.7325   -0.0507   28.5591 C   0  0  0  0  0  0  0  0  0  0  0  0
   -2.5429   -0.3926   28.6784 C   0  0  0  0  0  0  0  0  0  0  0  0
   -2.1119   -1.7420   28.4689 C   0  0  0  0  0  0  0  0  0  0  0  0
   -3.0909   -2.6448   28.0900 C   0  0  0  0  0  0  0  0  0  0  0  0
   -4.3686   -2.2274   27.8931 C   0  0  0  0  0  0  0  0  0  0  0  0
   -4.7552   -0.9115   28.1323 C   0  0  0  0  0  0  0  0  0  0  0  0
   -5.9281   -0.4883   27.7994 N   0  0  0  0  0  0  0  0  0  0  0  0
  3  1  1  6
  3  4  1  0
  4  5  1  0
  5  6  1  0
  3  7  1  0
  6  7  1  0
  7 12  1  1
  5 18  1  0
 18 19  1  0
 24 25  1  0
  6 25  1  6
 12 13  2  0
 13 14  1  0
 14 15  2  0
 15 16  1  0
 16 17  2  0
 17 12  1  0
 19 20  2  0
 20 21  1  0
 21 22  2  0
 22 23  1  0
 23 24  2  0
 24 19  1  0
  1  2  2  0
  2  9  1  0
  9 11  2  0
 11 10  1  0
 10  8  2  0
  8  1  1  0
M  END
$$$$
