No_9335-complexes_sdf/6BKW-FPZ/2024-09-17-14-21-01/
     RDKit          3D

 22 24  0  0  0  0  0  0  0  0999 V2000
   -7.9040    3.9820   27.1177 C   0  0  0  0  0  0  0  0  0  0  0  0
   -7.8663    4.8694   27.9238 C   0  0  0  0  0  0  0  0  0  0  0  0
   -9.0491    3.8523   26.2542 C   0  0  0  0  0  0  0  0  0  0  0  0
   -8.7661    5.9491   27.9690 C   0  0  0  0  0  0  0  0  0  0  0  0
   -9.9295    4.8502   26.2323 C   0  0  0  0  0  0  0  0  0  0  0  0
   -9.8077    5.9288   27.0933 C   0  0  0  0  0  0  0  0  0  0  0  0
   -9.0726    2.7074   25.3087 C   0  0  0  0  0  0  0  0  0  0  0  0
  -10.0632    2.7302   24.3178 C   0  0  0  0  0  0  0  0  0  0  0  0
  -10.9336    3.8766   24.2566 C   0  0  0  0  0  0  0  0  0  0  0  0
  -10.8854    4.8283   25.1895 N   0  0  0  0  0  0  0  0  0  0  0  0
  -11.9640    3.8973   23.2869 C   0  0  0  0  0  0  0  0  0  0  0  0
  -13.1869    3.7262   23.4569 C   0  0  0  0  0  0  0  0  0  0  0  0
  -14.1507    3.9139   22.4950 C   0  0  0  0  0  0  0  0  0  0  0  0
  -11.4942    4.2279   21.9473 C   0  0  0  0  0  0  0  0  0  0  0  0
  -12.3754    4.3452   20.8879 C   0  0  0  0  0  0  0  0  0  0  0  0
  -13.7079    4.1951   21.1704 C   0  0  0  0  0  0  0  0  0  0  0  0
   -6.7215    2.6874   27.2419 Cl  0  0  0  0  0  0  0  0  0  0  0  0
  -10.1455    1.6472   23.4290 C   0  0  0  0  0  0  0  0  0  0  0  0
  -10.8265    0.4747   23.8331 C   0  0  0  0  0  0  0  0  0  0  0  0
  -11.2566    0.3059   25.1013 C   0  0  0  0  0  0  0  0  0  0  0  0
  -11.9993   -0.8817   25.4785 C   0  0  0  0  0  0  0  0  0  0  0  0
  -12.1851   -1.7966   24.4602 C   0  0  0  0  0  0  0  0  0  0  0  0
  9 11  1  0
  1 17  1  0
  8 18  1  0
 18 19  2  3
 19 20  1  0
 20 21  2  3
 21 22  1  0
  5 10  2  0
 10  9  1  0
  9  8  2  0
  8  7  1  0
  7  3  2  0
  1  2  2  0
  2  4  1  0
  4  6  2  0
  6  5  1  0
  5  3  1  0
  3  1  1  0
 11 12  2  0
 12 13  1  0
 13 16  2  0
 16 15  1  0
 15 14  2  0
 14 11  1  0
M  END
$$$$
