No_9556-complexes_sdf/6BKW-FPZ/2024-09-17-14-21-01/
     RDKit          3D

 19 21  0  0  0  0  0  0  0  0999 V2000
   -7.9040    3.9820   27.1177 C   0  0  0  0  0  0  0  0  0  0  0  0
   -7.8663    4.8694   27.9238 C   0  0  0  0  0  0  0  0  0  0  0  0
   -7.4698    2.6989   27.4277 C   0  0  0  0  0  0  0  0  0  0  0  0
   -7.9683    1.5964   26.8266 C   0  0  0  0  0  0  0  0  0  0  0  0
   -7.5289    0.3101   27.1202 C   0  0  0  0  0  0  0  0  0  0  0  0
   -8.3245   -0.7895   26.7699 C   0  0  0  0  0  0  0  0  0  0  0  0
   -9.4233   -0.5403   25.9713 C   0  0  0  0  0  0  0  0  0  0  0  0
   -9.1803    1.5623   26.0614 C   0  0  0  0  0  0  0  0  0  0  0  0
   -9.8368    0.6238   25.6759 C   0  0  0  0  0  0  0  0  0  0  0  0
   -7.8749    6.0886   27.9901 C   0  0  0  0  0  0  0  0  0  0  0  0
   -8.2961    6.8824   26.7853 C   0  0  0  0  0  0  0  0  0  0  0  0
   -8.9488    6.0344   25.8480 C   0  0  0  0  0  0  0  0  0  0  0  0
   -8.5835    4.4402   25.8992 C   0  0  0  0  0  0  0  0  0  0  0  0
   -6.3363    0.1385   27.9783 C   0  0  0  0  0  0  0  0  0  0  0  0
   -6.0617   -0.8270   28.8888 C   0  0  0  0  0  0  0  0  0  0  0  0
   -4.9024   -0.9697   29.4444 C   0  0  0  0  0  0  0  0  0  0  0  0
   -3.8763    0.0536   29.3059 C   0  0  0  0  0  0  0  0  0  0  0  0
   -5.1941    1.0672   27.7686 C   0  0  0  0  0  0  0  0  0  0  0  0
   -4.0354    1.0120   28.3873 C   0  0  0  0  0  0  0  0  0  0  0  0
  1  3  1  0
  3  4  1  0
  5 14  1  0
  4  5  1  0
  5  6  2  0
  6  7  1  0
  7  9  2  0
  9  8  1  0
  8  4  2  0
  1  2  2  0
  2 10  1  0
 10 11  2  0
 11 12  1  0
 12 13  2  0
 13  1  1  0
 14 15  2  0
 15 16  1  0
 16 17  2  0
 17 19  1  0
 19 18  2  0
 18 14  1  0
M  END
$$$$
