No_9280-complexes_sdf/6BKW-FPZ/2024-09-17-14-21-01/
     RDKit          3D

 20 22  0  0  0  0  0  0  0  0999 V2000
   -7.9040    3.9820   27.1177 C   0  0  0  0  0  0  0  0  0  0  0  0
   -7.8663    4.8694   27.9238 C   0  0  0  0  0  0  0  0  0  0  0  0
   -9.0501    3.8017   26.2617 C   0  0  0  0  0  0  0  0  0  0  0  0
  -10.0189    4.7608   26.3707 C   0  0  0  0  0  0  0  0  0  0  0  0
   -8.6973    5.9722   27.8968 C   0  0  0  0  0  0  0  0  0  0  0  0
   -9.8216    5.8946   27.1241 C   0  0  0  0  0  0  0  0  0  0  0  0
   -9.1437    2.6293   25.4175 C   0  0  0  0  0  0  0  0  0  0  0  0
   -9.9828    2.7153   24.2925 C   0  0  0  0  0  0  0  0  0  0  0  0
   -9.9467    1.6773   23.3492 C   0  0  0  0  0  0  0  0  0  0  0  0
   -9.1109    0.5243   23.6006 C   0  0  0  0  0  0  0  0  0  0  0  0
   -8.3458    0.4645   24.7344 C   0  0  0  0  0  0  0  0  0  0  0  0
   -8.2747    1.5416   25.6204 C   0  0  0  0  0  0  0  0  0  0  0  0
   -9.1184   -0.5625   22.6126 C   0  0  0  0  0  0  0  0  0  0  0  0
   -9.8596   -1.6720   22.9503 C   0  0  0  0  0  0  0  0  0  0  0  0
  -10.4427   -2.0174   23.7072 C   0  0  0  0  0  0  0  0  0  0  0  0
  -11.1496   -3.3263   23.8001 C   0  0  0  0  0  0  0  0  0  0  0  0
  -11.0087   -4.1343   22.7105 C   0  0  0  0  0  0  0  0  0  0  0  0
  -10.2876   -3.7883   21.6477 C   0  0  0  0  0  0  0  0  0  0  0  0
   -9.6212   -2.5757   21.5884 C   0  0  0  0  0  0  0  0  0  0  0  0
   -8.4190   -0.2407   21.5399 O   0  0  0  0  0  0  0  0  0  0  0  0
  3  7  1  0
 10 13  1  0
 13 14  1  0
 13 20  2  0
 14 15  2  0
 15 16  1  0
 16 17  2  0
 17 18  1  0
 18 19  2  0
 19 14  1  0
  1  2  2  0
  2  5  1  0
  5  6  2  0
  6  4  1  0
  4  3  2  0
  3  1  1  0
  7  8  2  0
  8  9  1  0
  9 10  2  0
 10 11  1  0
 11 12  2  0
 12  7  1  0
M  END
$$$$
