No_9331-complexes_sdf/6BKW-FPZ/2024-09-17-14-21-01/
     RDKit          3D

 30 34  0  0  0  0  0  0  0  0999 V2000
   -7.7129    4.2099   27.0854 C   0  0  0  0  0  0  0  0  0  0  0  0
   -7.7814    5.1722   27.8972 C   0  0  0  0  0  0  0  0  0  0  0  0
   -8.8998    3.8713   26.3707 C   0  0  0  0  0  0  0  0  0  0  0  0
   -8.9563    2.6796   25.5490 C   0  0  0  0  0  0  0  0  0  0  0  0
   -8.8131    6.1334   27.9344 C   0  0  0  0  0  0  0  0  0  0  0  0
   -9.9804    5.8121   27.1929 C   0  0  0  0  0  0  0  0  0  0  0  0
   -9.9861    4.6836   26.4532 C   0  0  0  0  0  0  0  0  0  0  0  0
   -8.3254    1.5773   26.0196 N   0  0  0  0  0  0  0  0  0  0  0  0
   -8.8015    0.5581   26.3368 C   0  0  0  0  0  0  0  0  0  0  0  0
   -7.9837   -0.4937   26.9599 C   0  0  0  0  0  0  0  0  0  0  0  0
   -8.3949   -1.5867   27.5801 C   0  0  0  0  0  0  0  0  0  0  0  0
  -10.0763    0.2442   26.2364 N   0  0  0  0  0  0  0  0  0  0  0  0
  -10.6213   -0.9234   26.8021 C   0  0  0  0  0  0  0  0  0  0  0  0
   -9.8130   -1.8097   27.4833 C   0  0  0  0  0  0  0  0  0  0  0  0
   -9.6187    2.6095   24.4968 O   0  0  0  0  0  0  0  0  0  0  0  0
  -11.9763   -1.1155   26.7469 N   0  0  0  0  0  0  0  0  0  0  0  0
  -12.5753   -2.0376   27.2750 C   0  0  0  0  0  0  0  0  0  0  0  0
  -11.8339   -3.0201   27.9958 C   0  0  0  0  0  0  0  0  0  0  0  0
  -10.5590   -2.9812   28.2142 C   0  0  0  0  0  0  0  0  0  0  0  0
  -12.5779   -4.1865   28.6543 C   0  0  0  0  0  0  0  0  0  0  0  0
  -12.3229   -4.4133   29.9761 C   0  0  0  0  0  0  0  0  0  0  0  0
  -12.9858   -5.3949   30.6343 C   0  0  0  0  0  0  0  0  0  0  0  0
  -13.9292   -6.1421   29.8923 C   0  0  0  0  0  0  0  0  0  0  0  0
  -14.1526   -5.8708   28.5986 C   0  0  0  0  0  0  0  0  0  0  0  0
  -13.4916   -4.8202   27.9226 C   0  0  0  0  0  0  0  0  0  0  0  0
  -15.1453   -6.6683   27.8952 C   0  0  0  0  0  0  0  0  0  0  0  0
  -15.4799   -6.5045   26.7596 N   0  0  0  0  0  0  0  0  0  0  0  0
  -15.1123   -5.5927   26.0153 C   0  0  0  0  0  0  0  0  0  0  0  0
  -13.9848   -4.6976   26.5494 C   0  0  0  0  0  0  0  0  0  0  0  0
  -15.7135   -7.6256   28.5700 O   0  0  0  0  0  0  0  0  0  0  0  0
  3  4  1  0
  4  8  1  0
  8  9  1  0
  4 15  2  0
 18 20  1  0
 24 26  1  0
 26 27  1  0
 25 29  1  0
 28 29  1  0
 26 30  2  0
 28 27  1  0
  1  2  2  0
  2  5  1  0
  5  6  2  0
  6  7  1  0
  7  3  2  0
  3  1  1  0
 20 21  2  0
 21 22  1  0
 22 23  2  0
 23 24  1  0
 24 25  2  0
 25 20  1  0
  9 10  2  0
 10 11  1  0
 11 14  2  0
 13 12  2  0
 12  9  1  0
 13 14  1  0
 14 19  1  0
 19 18  2  0
 18 17  1  0
 17 16  2  0
 16 13  1  0
M  END
$$$$
