No_9082-complexes_sdf/6BKW-FPZ/2024-09-17-14-21-01/
     RDKit          3D

 40 44  0  0  0  0  0  0  0  0999 V2000
   -7.9040    3.9820   27.1177 C   0  0  0  0  0  0  0  0  0  0  0  0
   -8.2057    2.8231   26.8733 C   0  0  0  0  0  0  0  0  0  0  0  0
   -8.7695    5.0740   26.7916 C   0  0  0  0  0  0  0  0  0  0  0  0
   -8.4337    6.4678   27.0913 C   0  0  0  0  0  0  0  0  0  0  0  0
   -9.3742    2.4311   26.2346 C   0  0  0  0  0  0  0  0  0  0  0  0
  -10.2395    3.4267   25.8887 C   0  0  0  0  0  0  0  0  0  0  0  0
   -9.9567    4.7548   26.1374 C   0  0  0  0  0  0  0  0  0  0  0  0
   -7.3352    6.7089   26.8662 F   0  0  0  0  0  0  0  0  0  0  0  0
   -8.8744    6.7143   28.4556 F   0  0  0  0  0  0  0  0  0  0  0  0
   -9.1898    7.3253   26.2897 F   0  0  0  0  0  0  0  0  0  0  0  0
   -7.2358    1.7005   27.3128 C   0  0  0  0  0  0  0  0  0  0  0  0
   -7.5719    0.3216   27.2613 C   0  0  0  0  0  0  0  0  0  0  0  0
   -6.7554   -0.4916   27.5206 C   0  0  0  0  0  0  0  0  0  0  0  0
   -5.3802   -0.1743   27.9524 C   0  0  0  0  0  0  0  0  0  0  0  0
   -5.0482    1.1732   28.0066 C   0  0  0  0  0  0  0  0  0  0  0  0
   -5.8928    2.0870   27.6681 C   0  0  0  0  0  0  0  0  0  0  0  0
   -4.2403   -1.0878   28.3580 C   0  0  0  0  0  0  0  0  0  0  0  0
   -3.1623   -0.9509   28.2182 N   0  0  0  0  0  0  0  0  0  0  0  0
   -4.6835   -2.2430   28.9443 O   0  0  0  0  0  0  0  0  0  0  0  0
   -2.0349   -1.8216   28.6057 C   0  0  0  0  0  0  0  0  0  0  0  0
   -1.4859   -1.5497   29.7187 C   0  0  0  0  0  0  0  0  0  0  0  0
   -0.4983   -2.4220   30.1580 C   0  0  0  0  0  0  0  0  0  0  0  0
   -0.0351   -3.4313   29.3761 C   0  0  0  0  0  0  0  0  0  0  0  0
   -0.6562   -3.6085   28.1505 C   0  0  0  0  0  0  0  0  0  0  0  0
   -1.6820   -2.7543   27.7213 C   0  0  0  0  0  0  0  0  0  0  0  0
  -11.4671    3.1740   25.1101 C   0  0  0  0  0  0  0  0  0  0  0  0
  -11.8456    3.9582   24.0936 C   0  0  0  0  0  0  0  0  0  0  0  0
  -12.9885    3.7371   23.2769 C   0  0  0  0  0  0  0  0  0  0  0  0
  -13.8274    2.7739   23.6565 C   0  0  0  0  0  0  0  0  0  0  0  0
  -14.9426    2.5785   22.9121 C   0  0  0  0  0  0  0  0  0  0  0  0
  -12.3441    2.1553   25.5117 C   0  0  0  0  0  0  0  0  0  0  0  0
  -13.5110    2.0017   24.7171 C   0  0  0  0  0  0  0  0  0  0  0  0
  -15.9137    1.7552   23.3046 C   0  0  0  0  0  0  0  0  0  0  0  0
  -15.5549    0.9562   24.4680 C   0  0  0  0  0  0  0  0  0  0  0  0
  -14.4507    1.0346   25.1892 C   0  0  0  0  0  0  0  0  0  0  0  0
   -1.8511   -0.5975   30.7520 N   0  0  0  0  0  0  0  0  0  0  0  0
   -2.3560   -0.8748   32.0321 C   0  0  0  0  0  0  0  0  0  0  0  0
   -2.1844   -1.9420   32.5122 O   0  0  0  0  0  0  0  0  0  0  0  0
   -3.0449    0.2707   32.6350 C   0  0  0  0  0  0  0  0  0  0  0  0
   -4.0023    0.0782   33.3545 O   0  0  0  0  0  0  0  0  0  0  0  0
  3  4  1  0
  4  8  1  0
  4  9  1  0
  4 10  1  0
  2 11  1  0
 14 17  1  0
 17 18  1  0
 17 19  2  0
 18 20  1  0
  6 26  1  0
 21 36  1  0
 36 37  1  0
 37 38  2  0
 37 39  1  0
 39 40  1  0
  1  2  2  0
  2  5  1  0
  5  6  2  0
  6  7  1  0
  7  3  2  0
  3  1  1  0
 29 30  1  0
 30 33  2  0
 33 34  1  0
 34 35  2  0
 35 32  1  0
 26 27  2  0
 27 28  1  0
 28 29  2  0
 29 32  1  0
 32 31  2  0
 31 26  1  0
 11 12  2  0
 12 13  1  0
 13 14  2  0
 14 15  1  0
 15 16  2  0
 16 11  1  0
 20 21  2  0
 21 22  1  0
 22 23  2  0
 23 24  1  0
 24 25  2  0
 25 20  1  0
M  END
$$$$
