No_9403-complexes_sdf/6BKW-FPZ/2024-09-17-14-21-01/
     RDKit          3D

 33 37  0  0  0  0  0  0  0  0999 V2000
   -7.9040    3.9820   27.1177 C   0  0  0  0  0  0  0  0  0  0  0  0
   -8.2057    2.8231   26.8733 C   0  0  0  0  0  0  0  0  0  0  0  0
   -7.4766    1.7477   27.4593 C   0  0  0  0  0  0  0  0  0  0  0  0
   -6.7221    4.3631   27.8544 C   0  0  0  0  0  0  0  0  0  0  0  0
   -6.1698    2.0708   27.9540 C   0  0  0  0  0  0  0  0  0  0  0  0
   -5.2664    1.0481   28.4148 C   0  0  0  0  0  0  0  0  0  0  0  0
   -5.8314    3.4519   28.2237 C   0  0  0  0  0  0  0  0  0  0  0  0
   -5.6300   -0.2222   28.5006 N   0  0  0  0  0  0  0  0  0  0  0  0
   -4.7221   -1.1049   29.0272 C   0  0  0  0  0  0  0  0  0  0  0  0
   -3.9407    1.2872   28.8385 C   0  0  0  0  0  0  0  0  0  0  0  0
   -8.9487    4.9886   26.6604 C   0  0  0  0  0  0  0  0  0  0  0  0
   -9.6637    4.8367   25.5025 C   0  0  0  0  0  0  0  0  0  0  0  0
   -5.1932   -2.3587   29.0759 F   0  0  0  0  0  0  0  0  0  0  0  0
   -3.5324   -0.8315   29.3971 N   0  0  0  0  0  0  0  0  0  0  0  0
   -3.0855    0.4006   29.3212 C   0  0  0  0  0  0  0  0  0  0  0  0
   -8.9060    6.3310   27.2720 C   0  0  0  0  0  0  0  0  0  0  0  0
  -10.5499    3.8313   25.3369 C   0  0  2  0  0  0  0  0  0  0  0  0
  -11.2392    3.6981   24.0726 C   0  0  0  0  0  0  0  0  0  0  0  0
  -10.9342    4.0888   22.9811 C   0  0  0  0  0  0  0  0  0  0  0  0
  -11.6175    3.9093   21.8090 C   0  0  0  0  0  0  0  0  0  0  0  0
  -12.7443    3.1204   21.8097 C   0  0  0  0  0  0  0  0  0  0  0  0
  -12.5505    2.9980   24.0088 C   0  0  0  0  0  0  0  0  0  0  0  0
  -13.2067    2.7265   22.9437 C   0  0  0  0  0  0  0  0  0  0  0  0
  -11.0433    3.0048   26.4183 C   0  0  0  0  0  0  0  0  0  0  0  0
  -10.6394    1.7368   26.5703 C   0  0  0  0  0  0  0  0  0  0  0  0
  -11.2875    0.6755   27.2321 C   0  0  0  0  0  0  0  0  0  0  0  0
  -10.7462   -0.5789   27.3871 C   0  0  0  0  0  0  0  0  0  0  0  0
   -9.6534   -0.8525   26.6017 C   0  0  0  0  0  0  0  0  0  0  0  0
   -9.0694   -0.0346   25.7256 C   0  0  0  0  0  0  0  0  0  0  0  0
   -9.5299    1.3056   25.6674 C   0  0  0  0  0  0  0  0  0  0  0  0
   -9.1400    2.3672   25.9456 C   0  0  1  0  0  0  0  0  0  0  0  0
   -8.6180    2.8548   24.8916 F   0  0  0  0  0  0  0  0  0  0  0  0
   -9.1730    3.2989   25.4554 Cl  0  0  0  0  0  0  0  0  0  0  0  0
  5  6  1  0
  1 11  1  0
 11 12  2  3
  9 13  1  0
 11 16  1  0
 12 17  1  0
 17 18  1  1
 17 24  1  0
  2 31  1  0
 30 31  1  0
 31 32  1  6
 31 33  1  0
 24 25  1  0
 18 19  2  0
 19 20  1  0
 20 21  2  0
 21 23  1  0
 23 22  2  0
 22 18  1  0
 25 26  2  0
 26 27  1  0
 27 28  2  0
 28 29  1  0
 29 30  2  0
 30 25  1  0
  6  8  2  0
  8  9  1  0
  9 14  2  0
 14 15  1  0
 15 10  2  0
 10  6  1  0
  1  2  1  0
  2  3  2  0
  3  5  1  0
  5  7  2  0
  7  4  1  0
  4  1  2  0
M  END
$$$$
