No_9706-complexes_sdf/6BKW-FPZ/2024-09-17-14-21-01/
     RDKit          3D

 22 25  0  0  0  0  0  0  0  0999 V2000
   -7.2496    3.8871   27.4508 C   0  0  0  0  0  0  0  0  0  0  0  0
   -7.6161    2.7143   27.1523 C   0  0  0  0  0  0  0  0  0  0  0  0
   -8.8302    2.4659   26.5056 C   0  0  0  0  0  0  0  0  0  0  0  0
   -8.1584    5.0090   27.3234 C   0  0  0  0  0  0  0  0  0  0  0  0
   -9.3788    4.7965   26.7695 C   0  0  0  0  0  0  0  0  0  0  0  0
   -9.7028    3.5649   26.3276 C   0  0  0  0  0  0  0  0  0  0  0  0
   -6.9225    1.4464   27.3142 C   0  0  0  0  0  0  0  0  0  0  0  0
   -5.6363    1.5459   28.0507 C   0  0  0  0  0  0  0  0  0  0  0  0
   -4.8623    0.3825   28.2543 C   0  0  0  0  0  0  0  0  0  0  0  0
   -5.4168   -0.8279   27.9096 C   0  0  0  0  0  0  0  0  0  0  0  0
   -7.0603    0.0247   27.2197 C   0  0  2  0  0  0  0  0  0  0  0  0
   -7.7131    6.2589   27.7488 N   0  0  0  0  0  0  0  0  0  0  0  0
   -3.5090    0.5673   28.9099 C   0  0  0  0  0  0  0  0  0  0  0  0
   -3.3258   -0.2186   30.0253 C   0  0  0  0  0  0  0  0  0  0  0  0
   -3.9198    0.0363   31.1524 C   0  0  0  0  0  0  0  0  0  0  0  0
   -3.6493   -0.7749   32.3477 C   0  0  0  0  0  0  0  0  0  0  0  0
   -2.7081   -1.8056   32.2489 C   0  0  0  0  0  0  0  0  0  0  0  0
   -2.3225   -1.2995   29.9332 C   0  0  0  0  0  0  0  0  0  0  0  0
   -2.0514   -2.0156   31.0825 C   0  0  0  0  0  0  0  0  0  0  0  0
   -7.3864   -1.1138   26.7262 C   0  0  0  0  0  0  0  0  0  0  0  0
   -6.7542   -2.1464   26.9465 C   0  0  0  0  0  0  0  0  0  0  0  0
   -5.5717   -2.1340   27.6355 C   0  0  0  0  0  0  0  0  0  0  0  0
  2  7  1  0
  7  8  2  0
  8  9  1  0
  9 10  2  0
  7 11  1  0
 10 11  1  0
  4 12  1  0
  9 13  1  0
 13 14  1  0
 11 20  1  6
 20 21  2  0
 10 22  1  0
 21 22  1  0
 14 15  2  0
 15 16  1  0
 16 17  2  0
 17 19  1  0
 19 18  2  0
 18 14  1  0
  1  2  2  0
  2  3  1  0
  3  6  2  0
  6  5  1  0
  5  4  2  0
  4  1  1  0
M  END
$$$$
