No_9219-complexes_sdf/6BKW-FPZ/2024-09-17-14-21-01/
     RDKit          3D

 40 45  0  0  0  0  0  0  0  0999 V2000
   -7.7129    4.2099   27.0854 C   0  0  0  0  0  0  0  0  0  0  0  0
   -8.2112    3.0637   26.9225 C   0  0  0  0  0  0  0  0  0  0  0  0
   -7.5138    1.9223   27.4249 C   0  0  0  0  0  0  0  0  0  0  0  0
   -8.5309    5.4147   26.8151 C   0  0  0  0  0  0  0  0  0  0  0  0
   -9.6817    5.2393   26.1100 C   0  0  0  0  0  0  0  0  0  0  0  0
  -10.1032    3.9957   25.8534 C   0  0  0  0  0  0  0  0  0  0  0  0
   -9.4034    2.8430   26.2573 C   0  0  0  0  0  0  0  0  0  0  0  0
   -7.9625    0.5664   27.2655 C   0  0  0  0  0  0  0  0  0  0  0  0
   -9.2649    0.5125   26.5943 C   0  0  0  0  0  0  0  0  0  0  0  0
   -9.9476    1.5566   26.0984 C   0  0  0  0  0  0  0  0  0  0  0  0
   -7.9719    6.7766   27.0741 C   0  0  0  0  0  0  0  0  0  0  0  0
   -8.6419    7.8634   26.7238 N   0  0  0  0  0  0  0  0  0  0  0  0
   -6.9048    6.8403   27.7849 O   0  0  0  0  0  0  0  0  0  0  0  0
   -7.2794   -0.5320   27.8083 C   0  0  0  0  0  0  0  0  0  0  0  0
   -5.9892   -0.3942   28.2295 C   0  0  0  0  0  0  0  0  0  0  0  0
   -5.2576    0.8499   28.0297 C   0  0  0  0  0  0  0  0  0  0  0  0
   -6.0608    2.0256   27.7462 C   0  0  0  0  0  0  0  0  0  0  0  0
   -3.9325    1.0588   28.5457 C   0  0  0  0  0  0  0  0  0  0  0  0
   -3.2087    0.3688   28.3973 O   0  0  0  0  0  0  0  0  0  0  0  0
   -3.8760    1.9420   29.6064 O   0  0  0  0  0  0  0  0  0  0  0  0
  -11.3527    3.8880   25.0631 C   0  0  0  0  0  0  0  0  0  0  0  0
  -12.5814    3.7967   25.7095 C   0  0  0  0  0  0  0  0  0  0  0  0
  -13.7558    3.8691   25.0153 C   0  0  0  0  0  0  0  0  0  0  0  0
  -11.2929    3.8252   23.6925 C   0  0  0  0  0  0  0  0  0  0  0  0
  -12.4218    3.8569   22.9204 C   0  0  0  0  0  0  0  0  0  0  0  0
  -13.6647    3.9233   23.5913 C   0  0  0  0  0  0  0  0  0  0  0  0
   -9.8939   -0.8599   26.5155 C   0  0  0  0  0  0  0  0  0  0  0  0
  -11.0952   -0.8984   26.1805 C   0  0  0  0  0  0  0  0  0  0  0  0
  -11.7131   -1.9396   25.7022 C   0  0  0  0  0  0  0  0  0  0  0  0
  -11.0464   -3.1590   25.7864 C   0  0  0  0  0  0  0  0  0  0  0  0
   -9.7695   -3.2137   26.2740 C   0  0  0  0  0  0  0  0  0  0  0  0
   -9.0874   -2.0637   26.5776 C   0  0  0  0  0  0  0  0  0  0  0  0
   -7.7310   -2.0080   27.2243 C   0  0  2  0  0  0  0  0  0  0  0  0
   -7.7107   -2.7494   28.6012 C   0  0  0  0  0  0  0  0  0  0  0  0
   -6.7031   -2.5614   26.2719 C   0  0  0  0  0  0  0  0  0  0  0  0
   -6.8629   -3.0378   29.2694 C   0  0  0  0  0  0  0  0  0  0  0  0
   -6.8423   -2.7442   30.7106 C   0  0  0  0  0  0  0  0  0  0  0  0
   -5.6967   -2.7943   31.5493 C   0  0  0  0  0  0  0  0  0  0  0  0
   -4.4891   -3.1651   30.9584 C   0  0  0  0  0  0  0  0  0  0  0  0
   -4.4329   -3.3977   29.5846 C   0  0  0  0  0  0  0  0  0  0  0  0
  4 11  1  0
 11 12  1  0
 11 13  2  0
 16 18  1  0
 18 19  2  0
 18 20  1  0
  6 21  1  0
  9 27  1  0
 14 33  1  0
 32 33  1  0
 33 34  1  0
 33 35  1  6
 34 36  1  0
 36 37  2  3
 37 38  1  0
 38 39  2  3
 39 40  1  0
 21 22  2  0
 22 23  1  0
 23 26  2  0
 26 25  1  0
 25 24  2  0
 24 21  1  0
  1  2  2  0
  7  6  2  0
  6  5  1  0
  5  4  2  0
  4  1  1  0
 27 28  2  0
 28 29  1  0
 29 30  2  0
 30 31  1  0
 31 32  2  0
 32 27  1  0
  8 14  2  0
 14 15  1  0
 15 16  2  0
 16 17  1  0
 17  3  2  0
  2  3  1  0
  3  8  1  0
  8  9  1  0
  9 10  2  0
 10  7  1  0
  7  2  1  0
M  END
$$$$
