No_9776-complexes_sdf/6BKW-FPZ/2024-09-17-14-21-01/
     RDKit          3D

 40 45  0  0  0  0  0  0  0  0999 V2000
   -7.2496    3.8871   27.4508 C   0  0  0  0  0  0  0  0  0  0  0  0
   -7.6161    2.7143   27.1523 C   0  0  0  0  0  0  0  0  0  0  0  0
   -8.6212    2.2239   26.4073 C   0  0  0  0  0  0  0  0  0  0  0  0
   -8.2540    4.9237   27.1711 C   0  0  0  0  0  0  0  0  0  0  0  0
   -9.3729    4.5806   26.4432 C   0  0  0  0  0  0  0  0  0  0  0  0
   -9.5830    3.2969   26.1026 C   0  0  0  0  0  0  0  0  0  0  0  0
   -7.9304    6.3207   27.5389 C   0  0  1  0  0  0  0  0  0  0  0  0
   -6.9019    6.6335   28.0776 N   0  0  0  0  0  0  0  0  0  0  0  0
   -8.8101    7.1675   27.1544 F   0  0  0  0  0  0  0  0  0  0  0  0
   -9.0750    0.9282   26.0727 C   0  0  0  0  0  0  0  0  0  0  0  0
   -8.5007    0.0828   25.9066 C   0  0  0  0  0  0  0  0  0  0  0  0
   -8.9356   -1.3335   25.5953 C   0  0  0  0  0  0  0  0  0  0  0  0
  -10.3015   -1.4611   25.5165 C   0  0  0  0  0  0  0  0  0  0  0  0
  -10.5483    0.4886   25.9740 C   0  0  0  0  0  0  0  0  0  0  0  0
  -11.0574   -0.5641   25.7432 C   0  0  0  0  0  0  0  0  0  0  0  0
  -12.5618   -0.7611   25.6480 C   0  0  0  0  0  0  0  0  0  0  0  0
  -13.4579    0.0439   26.2443 C   0  0  0  0  0  0  0  0  0  0  0  0
  -14.8488   -0.1261   26.1324 C   0  0  0  0  0  0  0  0  0  0  0  0
  -15.2763   -1.1932   25.3750 C   0  0  0  0  0  0  0  0  0  0  0  0
  -14.4314   -1.8781   24.8040 C   0  0  0  0  0  0  0  0  0  0  0  0
  -13.0551   -1.7775   24.8817 C   0  0  0  0  0  0  0  0  0  0  0  0
  -15.1016   -2.9895   24.0244 C   0  0  0  0  0  0  0  0  0  0  0  0
  -14.4879   -3.9198   23.5394 O   0  0  0  0  0  0  0  0  0  0  0  0
  -16.4074   -2.9446   23.7725 N   0  0  0  0  0  0  0  0  0  0  0  0
  -17.0504   -3.9320   23.0304 C   0  0  0  0  0  0  0  0  0  0  0  0
  -17.0944   -4.8868   22.6849 C   0  0  0  0  0  0  0  0  0  0  0  0
  -18.3236   -3.0883   22.5043 C   0  0  0  0  0  0  0  0  0  0  0  0
  -19.2353   -3.7641   21.7336 C   0  0  0  0  0  0  0  0  0  0  0  0
  -17.8634   -5.7235   21.9320 C   0  0  0  0  0  0  0  0  0  0  0  0
  -19.0407   -5.0680   21.4322 C   0  0  0  0  0  0  0  0  0  0  0  0
  -20.4209   -3.0702   21.2503 C   0  0  0  0  0  0  0  0  0  0  0  0
  -20.6476   -1.8787   21.6349 N   0  0  0  0  0  0  0  0  0  0  0  0
  -21.1792   -3.6359   20.4688 O   0  0  0  0  0  0  0  0  0  0  0  0
  -21.7882   -1.0816   21.2340 C   0  0  0  0  0  0  0  0  0  0  0  0
  -21.8167    0.0428   21.7015 C   0  0  0  0  0  0  0  0  0  0  0  0
  -20.8551    0.6539   22.5858 C   0  0  0  0  0  0  0  0  0  0  0  0
  -19.7346   -0.1815   22.9380 C   0  0  0  0  0  0  0  0  0  0  0  0
  -19.6502   -1.3270   22.5023 C   0  0  0  0  0  0  0  0  0  0  0  0
  -18.5696   -2.0496   22.8577 N   0  0  0  0  0  0  0  0  0  0  0  0
  -15.7624    0.8294   26.8367 C   0  0  0  0  0  0  0  0  0  0  0  0
  4  7  1  0
  7  8  1  6
  7  9  1  0
  3 10  1  0
 15 16  1  0
 20 22  1  0
 22 23  2  0
 22 24  1  0
 24 25  1  0
 28 31  1  0
 31 32  1  0
 31 33  2  0
 32 34  1  0
 35 36  1  0
 36 37  1  0
 32 38  1  0
 27 39  1  0
 38 39  1  0
 18 40  1  0
 34 35  1  0
 37 38  1  0
  1  2  2  0
  2  3  1  0
  3  6  2  0
  6  5  1  0
  5  4  2  0
  4  1  1  0
 10 11  2  0
 11 12  1  0
 12 13  2  0
 13 15  1  0
 15 14  2  0
 14 10  1  0
 25 26  2  0
 26 29  1  0
 29 30  2  0
 30 28  1  0
 28 27  2  0
 27 25  1  0
 16 17  2  0
 17 18  1  0
 18 19  2  0
 19 20  1  0
 20 21  2  0
 21 16  1  0
M  END
$$$$
