No_9459-complexes_sdf/6BKW-FPZ/2024-09-17-14-21-01/
     RDKit          3D

 24 26  0  0  0  0  0  0  0  0999 V2000
   -7.2496    3.8871   27.4508 C   0  0  0  0  0  0  0  0  0  0  0  0
   -8.5096    4.0291   27.2770 C   0  0  0  0  0  0  0  0  0  0  0  0
   -9.2677    5.1714   27.5773 C   0  0  0  0  0  0  0  0  0  0  0  0
   -9.2765    2.8248   26.8371 C   0  0  0  0  0  0  0  0  0  0  0  0
  -10.4623    3.0171   26.3236 C   0  0  1  0  0  0  0  0  0  0  0  0
  -10.8972    2.6250   25.3350 C   0  0  0  0  0  0  0  0  0  0  0  0
  -10.3416    1.8494   24.5924 C   0  0  0  0  0  0  0  0  0  0  0  0
  -10.6212    1.5290   23.2243 C   0  0  0  0  0  0  0  0  0  0  0  0
   -6.5022    2.6925   27.5144 C   0  0  0  0  0  0  0  0  0  0  0  0
   -7.1835    1.5168   27.1429 C   0  0  0  0  0  0  0  0  0  0  0  0
   -8.5344    1.6363   26.7022 C   0  0  0  0  0  0  0  0  0  0  0  0
  -11.6333    2.2110   22.6888 C   0  0  0  0  0  0  0  0  0  0  0  0
  -12.3101    3.1567   23.3799 C   0  0  0  0  0  0  0  0  0  0  0  0
  -11.9089    3.5082   24.6212 C   0  0  0  0  0  0  0  0  0  0  0  0
  -11.4673    2.9137   27.5546 C   0  0  0  0  0  0  0  0  0  0  0  0
  -12.6257    2.3936   27.3669 C   0  0  0  0  0  0  0  0  0  0  0  0
  -13.4336    2.1089   28.5734 C   0  0  0  0  0  0  0  0  0  0  0  0
  -14.5871    1.3630   28.5356 C   0  0  0  0  0  0  0  0  0  0  0  0
   -6.4689    0.2576   27.0622 C   0  0  0  0  0  0  0  0  0  0  0  0
   -5.3359    0.0820   27.8469 C   0  0  0  0  0  0  0  0  0  0  0  0
   -4.6755   -1.1558   27.9319 C   0  0  0  0  0  0  0  0  0  0  0  0
   -5.1731   -2.1585   27.2136 C   0  0  0  0  0  0  0  0  0  0  0  0
   -6.9167   -0.8583   26.4366 C   0  0  0  0  0  0  0  0  0  0  0  0
   -6.3010   -2.0399   26.4653 C   0  0  0  0  0  0  0  0  0  0  0  0
  2  3  1  0
  5  4  1  1
  5  6  1  0
  5 15  1  0
 15 16  2  3
 16 17  1  0
 17 18  2  0
 10 19  1  0
  6  7  2  0
  7  8  1  0
  8 12  2  0
 12 13  1  0
 13 14  2  0
 14  6  1  0
  1  2  2  0
  2  4  1  0
  4 11  2  0
 11 10  1  0
 10  9  2  0
  9  1  1  0
 19 20  2  0
 20 21  1  0
 21 22  2  0
 22 24  1  0
 24 23  2  0
 23 19  1  0
M  END
$$$$
