No_9397-complexes_sdf/6BKW-FPZ/2024-09-17-14-21-01/
     RDKit          3D

 17 19  0  0  0  0  0  0  0  0999 V2000
   -7.9040    3.9820   27.1177 C   0  0  0  0  0  0  0  0  0  0  0  0
   -9.0711    4.3164   27.0630 C   0  0  0  0  0  0  0  0  0  0  0  0
   -9.8698    3.9665   25.9495 C   0  0  0  0  0  0  0  0  0  0  0  0
   -7.0332    4.5030   28.2025 C   0  0  0  0  0  0  0  0  0  0  0  0
   -9.4357    2.9501   25.1393 C   0  0  0  0  0  0  0  0  0  0  0  0
   -8.2567    2.3218   25.4797 C   0  0  0  0  0  0  0  0  0  0  0  0
   -7.5105    2.7966   26.5752 C   0  0  0  0  0  0  0  0  0  0  0  0
  -10.2472    2.5204   24.0264 C   0  0  0  0  0  0  0  0  0  0  0  0
  -10.5935    3.4337   22.9918 C   0  0  0  0  0  0  0  0  0  0  0  0
  -10.9935    3.3487   21.9840 C   0  0  0  0  0  0  0  0  0  0  0  0
   -9.7033    1.3729   23.2896 C   0  0  0  0  0  0  0  0  0  0  0  0
  -10.2077    1.0762   21.9609 C   0  0  0  0  0  0  0  0  0  0  0  0
  -10.8084    2.1119   21.2722 C   0  0  0  0  0  0  0  0  0  0  0  0
   -6.8902    5.9345   28.1919 C   0  0  0  0  0  0  0  0  0  0  0  0
   -7.8292    6.6733   27.4717 C   0  0  0  0  0  0  0  0  0  0  0  0
   -7.7006    7.8785   26.8937 C   0  0  0  0  0  0  0  0  0  0  0  0
   -9.1181    6.1168   27.0831 C   0  0  0  0  0  0  0  0  0  0  0  0
  5  8  1  0
 15 16  1  0
  8  9  2  0
  9 10  1  0
 10 13  2  0
 13 12  1  0
 12 11  2  0
 11  8  1  0
  2 17  1  0
 17 15  2  0
 15 14  1  0
 14  4  2  0
  4  1  1  0
  1  2  1  0
  2  3  2  0
  3  5  1  0
  5  6  2  0
  6  7  1  0
  7  1  2  0
M  END
$$$$
