No_9214-complexes_sdf/6BKW-FPZ/2024-09-17-14-21-01/
     RDKit          3D

 12 12  0  0  0  0  0  0  0  0999 V2000
   -7.9040    3.9820   27.1177 C   0  0  0  0  0  0  0  0  0  0  0  0
   -7.8663    4.8694   27.9238 C   0  0  0  0  0  0  0  0  0  0  0  0
   -9.0806    3.1428   27.1220 C   0  0  0  0  0  0  0  0  0  0  0  0
  -10.0909    3.4892   26.5180 C   0  0  0  0  0  0  0  0  0  0  0  0
   -9.0818    5.8025   27.6063 C   0  0  0  0  0  0  0  0  0  0  0  0
  -10.3119    5.0061   27.2645 C   0  0  0  0  0  0  0  0  0  0  0  0
   -8.9334    1.6545   27.3558 C   0  0  0  0  0  0  0  0  0  0  0  0
   -7.6862    1.0391   27.2191 C   0  0  0  0  0  0  0  0  0  0  0  0
   -7.5094   -0.0478   26.7831 C   0  0  0  0  0  0  0  0  0  0  0  0
   -6.1883   -0.5892   26.5688 C   0  0  0  0  0  0  0  0  0  0  0  0
   -5.9894   -1.6725   25.7403 C   0  0  0  0  0  0  0  0  0  0  0  0
   -7.1087   -2.3549   25.2538 C   0  0  0  0  0  0  0  0  0  0  0  0
  3  7  1  0
  7  8  1  0
  8  9  2  3
  9 10  1  0
 10 11  2  3
 11 12  1  0
  1  2  2  0
  2  5  1  0
  5  6  2  0
  6  4  1  0
  4  3  2  0
  3  1  1  0
M  END
$$$$
