No_9883-complexes_sdf/6BKW-FPZ/2024-09-17-14-21-01/
     RDKit          3D

 15 15  0  0  0  0  0  0  0  0999 V2000
   -7.9040    3.9820   27.1177 C   0  0  0  0  0  0  0  0  0  0  0  0
   -8.2057    2.8231   26.8733 C   0  0  0  0  0  0  0  0  0  0  0  0
   -9.2962    2.4021   26.1155 C   0  0  0  0  0  0  0  0  0  0  0  0
   -8.7358    5.0662   26.5917 C   0  0  0  0  0  0  0  0  0  0  0  0
   -9.7618    4.7023   25.7546 C   0  0  0  0  0  0  0  0  0  0  0  0
  -10.0066    3.4105   25.4922 C   0  0  0  0  0  0  0  0  0  0  0  0
   -8.3943    6.4760   26.8801 C   0  0  0  0  0  0  0  0  0  0  0  0
   -7.3344    6.7074   26.8278 F   0  0  0  0  0  0  0  0  0  0  0  0
   -9.1158    6.7165   28.1569 F   0  0  0  0  0  0  0  0  0  0  0  0
   -8.9880    7.2588   25.9070 F   0  0  0  0  0  0  0  0  0  0  0  0
   -7.2204    1.5075   27.6060 Cl  0  0  0  0  0  0  0  0  0  0  0  0
  -11.1120    3.1419   24.5637 C   0  0  0  0  0  0  0  0  0  0  0  0
  -12.1852    2.6147   24.9122 F   0  0  0  0  0  0  0  0  0  0  0  0
  -11.3972    4.3281   23.9074 F   0  0  0  0  0  0  0  0  0  0  0  0
  -10.5870    2.4212   23.4943 F   0  0  0  0  0  0  0  0  0  0  0  0
  4  7  1  0
  7  8  1  0
  7  9  1  0
  7 10  1  0
  2 11  1  0
  6 12  1  0
 12 13  1  0
 12 14  1  0
 12 15  1  0
  1  2  2  0
  2  3  1  0
  3  6  2  0
  6  5  1  0
  5  4  2  0
  4  1  1  0
M  END
$$$$
