No_9809-complexes_sdf/6BKW-FPZ/2024-09-17-14-21-01/
     RDKit          3D

 21 22  0  0  0  0  0  0  0  0999 V2000
   -7.2496    3.8871   27.4508 C   0  0  0  0  0  0  0  0  0  0  0  0
   -7.9379    4.9063   27.8518 C   0  0  0  0  0  0  0  0  0  0  0  0
   -9.3376    4.8647   27.7795 C   0  0  0  0  0  0  0  0  0  0  0  0
   -7.8544    2.6294   27.0414 C   0  0  0  0  0  0  0  0  0  0  0  0
   -9.2665    2.6175   27.0340 C   0  0  0  0  0  0  0  0  0  0  0  0
   -9.9836    3.7042   27.4150 C   0  0  0  0  0  0  0  0  0  0  0  0
   -9.9053    1.3367   26.6546 C   0  0  0  0  0  0  0  0  0  0  0  0
  -10.5454    0.7121   27.6210 C   0  0  0  0  0  0  0  0  0  0  0  0
   -9.7477    0.8420   25.3867 C   0  0  0  0  0  0  0  0  0  0  0  0
  -10.2508   -0.1815   24.9598 C   0  0  0  0  0  0  0  0  0  0  0  0
  -11.1843   -0.5297   27.2555 C   0  0  0  0  0  0  0  0  0  0  0  0
  -11.0495   -0.9785   25.9300 C   0  0  0  0  0  0  0  0  0  0  0  0
   -7.3335    6.0698   28.1779 O   0  0  0  0  0  0  0  0  0  0  0  0
  -11.3098    3.6384   27.4702 O   0  0  0  0  0  0  0  0  0  0  0  0
  -12.1518    4.1517   26.9605 C   0  0  0  0  0  0  0  0  0  0  0  0
  -11.6187   -2.0788   25.5040 F   0  0  0  0  0  0  0  0  0  0  0  0
  -13.3008    3.5939   26.4559 C   0  0  0  0  0  0  0  0  0  0  0  0
  -13.9067    4.2327   25.4216 C   0  0  0  0  0  0  0  0  0  0  0  0
  -13.8645    3.7660   24.2383 C   0  0  0  0  0  0  0  0  0  0  0  0
  -13.7901    2.3263   24.1176 C   0  0  0  0  0  0  0  0  0  0  0  0
  -13.8302    1.7067   22.8710 C   0  0  0  0  0  0  0  0  0  0  0  0
  5  7  1  0
  2 13  1  0
  6 14  1  0
 14 15  1  0
 12 16  1  0
 15 17  1  0
 17 18  1  0
 18 19  2  3
 19 20  1  0
 20 21  2  0
  7  8  2  0
  8 11  1  0
 11 12  2  0
 12 10  1  0
 10  9  2  0
  9  7  1  0
  1  2  2  0
  2  3  1  0
  3  6  2  0
  6  5  1  0
  5  4  2  0
  4  1  1  0
M  END
$$$$
