No_921-complexes_sdf/6BKW-FPZ/2024-09-17-14-21-01/
     RDKit          3D

 29 30  0  0  0  0  0  0  0  0999 V2000
   -7.9040    3.9820   27.1177 C   0  0  0  0  0  0  0  0  0  0  0  0
   -8.2057    2.8231   26.8733 C   0  0  0  0  0  0  0  0  0  0  0  0
   -7.0130    4.3706   28.1140 C   0  0  0  0  0  0  0  0  0  0  0  0
   -9.3829    2.4374   26.1668 C   0  0  0  0  0  0  0  0  0  0  0  0
  -10.0975    3.4171   25.5988 C   0  0  0  0  0  0  0  0  0  0  0  0
   -9.7335    4.7745   25.7705 C   0  0  0  0  0  0  0  0  0  0  0  0
   -8.7317    5.1107   26.5933 C   0  0  0  0  0  0  0  0  0  0  0  0
   -8.3983    6.4679   26.8933 C   0  0  0  0  0  0  0  0  0  0  0  0
   -7.3346    6.7850   27.7126 C   0  0  0  0  0  0  0  0  0  0  0  0
   -6.7763    5.7820   28.3880 C   0  0  2  0  0  0  0  0  0  0  0  0
   -5.8232    6.0512   29.2454 O   0  0  0  0  0  0  0  0  0  0  0  0
   -6.8961    7.9436   27.5910 O   0  0  0  0  0  0  0  0  0  0  0  0
   -7.7977    7.2487   28.5021 Cl  0  0  0  0  0  0  0  0  0  0  0  0
   -5.4575    5.4877   28.6881 F   0  0  0  0  0  0  0  0  0  0  0  0
   -6.2449    5.2272   29.0625 O   0  0  0  0  0  0  0  0  0  0  0  0
   -5.1696    4.0760   29.2587 C   0  0  1  0  0  0  0  0  0  0  0  0
   -6.6549    3.0912   28.4641 O   0  0  0  0  0  0  0  0  0  0  0  0
   -4.7265    3.3504   28.3229 O   0  0  0  0  0  0  0  0  0  0  0  0
   -6.0868    2.3446   27.6689 C   0  0  0  0  0  0  0  0  0  0  0  0
   -3.7770    2.2168   28.6885 C   0  0  0  0  0  0  0  0  0  0  0  0
   -5.9339    1.0386   28.0680 N   0  0  0  0  0  0  0  0  0  0  0  0
   -6.6173   -0.0392   27.7729 C   0  0  0  0  0  0  0  0  0  0  0  0
   -4.5432    0.8820   28.6066 C   0  0  0  0  0  0  0  0  0  0  0  0
   -4.2107    4.4229   29.1910 O   0  0  0  0  0  0  0  0  0  0  0  0
   -2.8589    4.9151   29.9102 P   0  0  0  0  0  0  0  0  0  0  0  0
   -3.9605    5.6955   30.6796 O   0  0  0  0  0  0  0  0  0  0  0  0
   -1.7937    5.1719   29.7716 O   0  0  0  0  0  0  0  0  0  0  0  0
   -2.4858    3.8905   30.5465 O   0  0  0  0  0  0  0  0  0  0  0  0
   -2.2997    4.0102   31.6328 F   0  0  0  0  0  0  0  0  0  0  0  0
  7  8  1  0
  8  9  2  3
  3 10  1  0
 10 11  1  6
  9 12  1  0
  9 13  1  0
 11 14  1  0
 10 15  1  0
 15 16  1  0
  3 17  1  0
 16 18  1  0
 17 19  1  0
 18 20  1  0
 19 21  1  0
 21 22  1  0
 20 23  2  3
 21 23  1  0
 16 24  1  6
 24 25  1  0
 25 26  1  0
 25 27  1  0
 25 28  1  0
 28 29  1  0
  3  1  1  0
  1  2  2  0
  2  4  1  0
  4  5  2  0
  5  6  1  0
  6  7  2  0
  7  1  1  0
M  END
$$$$
