No_955-complexes_sdf/6BKW-FPZ/2024-09-17-14-21-01/
     RDKit          3D

 16 17  0  0  0  0  0  0  0  0999 V2000
   -7.9040    3.9820   27.1177 C   0  0  0  0  0  0  0  0  0  0  0  0
   -7.8663    4.8694   27.9238 C   0  0  0  0  0  0  0  0  0  0  0  0
   -9.0501    3.8017   26.2617 C   0  0  0  0  0  0  0  0  0  0  0  0
   -9.1826    2.7026   25.3575 C   0  0  0  0  0  0  0  0  0  0  0  0
   -8.6940    6.0131   27.8614 C   0  0  0  0  0  0  0  0  0  0  0  0
   -9.9755    4.8547   26.2361 C   0  0  0  0  0  0  0  0  0  0  0  0
   -9.7463    5.9398   27.0364 C   0  0  0  0  0  0  0  0  0  0  0  0
   -8.7003    1.4603   25.7663 C   0  0  0  0  0  0  0  0  0  0  0  0
   -8.8305    0.3583   24.9242 C   0  0  0  0  0  0  0  0  0  0  0  0
   -9.4370    0.5654   23.6656 C   0  0  0  0  0  0  0  0  0  0  0  0
   -9.7593    2.7744   24.1206 C   0  0  0  0  0  0  0  0  0  0  0  0
   -9.8537    1.7753   23.2775 C   0  0  0  0  0  0  0  0  0  0  0  0
   -9.5459   -0.6346   22.7213 C   0  0  0  0  0  0  0  0  0  0  0  0
   -8.5649   -1.2269   22.3447 N   0  0  0  0  0  0  0  0  0  0  0  0
   -7.3797   -1.0582   22.8443 C   0  0  0  0  0  0  0  0  0  0  0  0
   -6.3660   -2.1482   22.6012 C   0  0  0  0  0  0  0  0  0  0  0  0
  3  4  1  0
 10 13  1  0
 13 14  2  3
 14 15  1  0
 15 16  2  0
  4  8  2  0
  8  9  1  0
  9 10  2  0
 10 12  1  0
 12 11  2  0
 11  4  1  0
  1  2  2  0
  2  5  1  0
  5  7  2  0
  7  6  1  0
  6  3  2  0
  3  1  1  0
M  END
$$$$
