No_9452-complexes_sdf/6BKW-FPZ/2024-09-17-14-21-01/
     RDKit          3D

 17 18  0  0  0  0  0  0  0  0999 V2000
   -7.2496    3.8871   27.4508 C   0  0  0  0  0  0  0  0  0  0  0  0
   -7.6161    2.7143   27.1523 C   0  0  0  0  0  0  0  0  0  0  0  0
   -7.1619    1.8631   27.5232 C   0  0  0  0  0  0  0  0  0  0  0  0
   -8.0384    5.0866   27.3232 C   0  0  0  0  0  0  0  0  0  0  0  0
   -9.1223    5.1097   26.4856 C   0  0  0  0  0  0  0  0  0  0  0  0
   -8.9382    2.7290   26.5134 C   0  0  0  0  0  0  0  0  0  0  0  0
   -9.6249    3.8521   26.1646 C   0  0  0  0  0  0  0  0  0  0  0  0
   -7.5071    0.4046   27.3181 C   0  0  0  0  0  0  0  0  0  0  0  0
   -6.8061   -0.6693   27.6968 C   0  0  0  0  0  0  0  0  0  0  0  0
   -5.5105   -0.4061   28.2105 C   0  0  0  0  0  0  0  0  0  0  0  0
   -4.9738    0.8552   28.3071 C   0  0  0  0  0  0  0  0  0  0  0  0
   -5.6677    1.9035   27.9859 C   0  0  0  0  0  0  0  0  0  0  0  0
   -7.7024    6.4003   27.7464 N   0  0  0  0  0  0  0  0  0  0  0  0
   -3.7309    1.0584   28.8196 F   0  0  0  0  0  0  0  0  0  0  0  0
   -7.8384    7.4575   26.9831 C   0  0  0  0  0  0  0  0  0  0  0  0
   -8.5868    7.9528   26.3816 N   0  0  0  0  0  0  0  0  0  0  0  0
   -6.5564    8.2026   27.0246 N   0  0  0  0  0  0  0  0  0  0  0  0
  2  3  1  0
  4 13  1  0
 11 14  1  0
 13 15  1  0
 15 16  1  0
 15 17  1  0
  3  8  2  0
  8  9  1  0
  9 10  2  0
 10 11  1  0
 11 12  2  0
 12  3  1  0
  1  2  2  0
  2  6  1  0
  6  7  2  0
  7  5  1  0
  5  4  2  0
  4  1  1  0
M  END
$$$$
