No_9338-complexes_sdf/6BKW-FPZ/2024-09-17-14-21-01/
     RDKit          3D

 19 20  0  0  0  0  0  0  0  0999 V2000
   -7.2496    3.8871   27.4508 C   0  0  0  0  0  0  0  0  0  0  0  0
   -7.6161    2.7143   27.1523 C   0  0  0  0  0  0  0  0  0  0  0  0
   -8.6007    2.2754   27.5344 C   0  0  0  0  0  0  0  0  0  0  0  0
   -8.1723    4.9077   27.9308 C   0  0  0  0  0  0  0  0  0  0  0  0
   -9.4370    4.4191   28.1790 C   0  0  0  0  0  0  0  0  0  0  0  0
   -9.7217    3.1013   28.0011 C   0  0  0  0  0  0  0  0  0  0  0  0
   -7.8115    6.1693   28.1398 O   0  0  0  0  0  0  0  0  0  0  0  0
   -9.1111    0.8002   27.3162 C   0  0  0  0  0  0  0  0  0  0  0  0
  -10.3013    0.3765   27.7401 C   0  0  0  0  0  0  0  0  0  0  0  0
  -10.6080   -0.9711   27.6674 C   0  0  0  0  0  0  0  0  0  0  0  0
   -9.6226   -1.8678   27.3216 C   0  0  0  0  0  0  0  0  0  0  0  0
   -8.1604   -0.2205   27.0624 C   0  0  0  0  0  0  0  0  0  0  0  0
   -8.4027   -1.4663   27.0277 C   0  0  0  0  0  0  0  0  0  0  0  0
   -8.3669    7.0612   27.1917 C   0  0  0  0  0  0  0  0  0  0  0  0
   -7.4534    8.0064   26.5721 C   0  0  0  0  0  0  0  0  0  0  0  0
  -11.9962   -1.4101   28.1041 C   0  0  0  0  0  0  0  0  0  0  0  0
  -12.6295   -0.9511   29.0489 N   0  0  0  0  0  0  0  0  0  0  0  0
  -13.7880   -1.2797   29.5675 C   0  0  0  0  0  0  0  0  0  0  0  0
  -14.3020   -0.5497   30.6682 C   0  0  0  0  0  0  0  0  0  0  0  0
  4  7  1  0
  3  8  1  0
  7 14  1  0
 14 15  3  0
 10 16  1  0
 16 17  1  0
 17 18  2  3
 18 19  1  0
  1  2  2  0
  2  3  1  0
  3  6  2  0
  6  5  1  0
  5  4  2  0
  4  1  1  0
  8  9  2  0
  9 10  1  0
 10 11  2  0
 11 13  1  0
 13 12  2  0
 12  8  1  0
M  END
$$$$
