No_9420-complexes_sdf/6BKW-FPZ/2024-09-17-14-21-01/
     RDKit          3D

 24 26  0  0  0  0  0  0  0  0999 V2000
   -7.2496    3.8871   27.4508 C   0  0  0  0  0  0  0  0  0  0  0  0
   -7.6161    2.7143   27.1523 C   0  0  0  0  0  0  0  0  0  0  0  0
   -8.6212    2.2239   26.4073 C   0  0  0  0  0  0  0  0  0  0  0  0
   -8.2540    4.9237   27.1711 C   0  0  0  0  0  0  0  0  0  0  0  0
   -9.3729    4.5806   26.4432 C   0  0  0  0  0  0  0  0  0  0  0  0
   -9.5830    3.2969   26.1026 C   0  0  0  0  0  0  0  0  0  0  0  0
   -7.9479    6.2272   27.5121 N   0  0  0  0  0  0  0  0  0  0  0  0
   -8.8625    0.8952   26.0570 C   0  0  0  0  0  0  0  0  0  0  0  0
   -9.2787    0.5856   24.9689 C   0  0  0  0  0  0  0  0  0  0  0  0
   -9.4772   -0.8012   24.5356 C   0  0  0  0  0  0  0  0  0  0  0  0
   -9.1804   -1.7710   25.4422 C   0  0  0  0  0  0  0  0  0  0  0  0
   -8.5818   -0.1636   26.9091 C   0  0  0  0  0  0  0  0  0  0  0  0
   -8.7330   -1.4201   26.7268 C   0  0  0  0  0  0  0  0  0  0  0  0
   -8.7693    7.3000   27.1102 C   0  0  0  0  0  0  0  0  0  0  0  0
   -8.4986   -2.5066   27.7090 C   0  0  0  0  0  0  0  0  0  0  0  0
   -7.8083   -2.3313   28.5563 C   0  0  0  0  0  0  0  0  0  0  0  0
   -7.5950   -3.2312   29.7295 C   0  0  0  0  0  0  0  0  0  0  0  0
   -6.6762   -2.9431   30.7812 C   0  0  0  0  0  0  0  0  0  0  0  0
   -5.8854   -1.7624   30.7450 C   0  0  0  0  0  0  0  0  0  0  0  0
   -5.9681   -0.9346   29.6089 C   0  0  0  0  0  0  0  0  0  0  0  0
   -6.8427   -1.1687   28.6668 C   0  0  0  0  0  0  0  0  0  0  0  0
   -4.9114   -1.4945   31.8353 C   0  0  0  0  0  0  0  0  0  0  0  0
   -3.9878   -0.5177   31.6098 C   0  0  0  0  0  0  0  0  0  0  0  0
   -4.0263    0.2700   30.3880 C   0  0  0  0  0  0  0  0  0  0  0  0
  4  7  1  0
  3  8  1  0
  7 14  1  0
 13 15  1  0
 19 22  1  0
 22 23  2  3
 23 24  1  0
 15 16  1  0
 16 17  2  0
 17 18  1  0
 18 19  2  0
 19 20  1  0
 20 21  2  0
 21 16  1  0
  1  2  2  0
  2  3  1  0
  3  6  2  0
  6  5  1  0
  5  4  2  0
  4  1  1  0
  8  9  2  0
  9 10  1  0
 10 11  2  0
 11 13  1  0
 13 12  2  0
 12  8  1  0
M  END
$$$$
