No_9819-complexes_sdf/6BKW-FPZ/2024-09-17-14-21-01/
     RDKit          3D

 36 40  0  0  0  0  0  0  0  0999 V2000
   -7.7129    4.2099   27.0854 C   0  0  0  0  0  0  0  0  0  0  0  0
   -8.2112    3.0637   26.9225 C   0  0  2  0  0  0  0  0  0  0  0  0
   -8.4224    5.2106   27.8516 C   0  0  0  0  0  0  0  0  0  0  0  0
   -9.5628    2.7160   27.4089 C   0  0  2  0  0  0  0  0  0  0  0  0
  -10.2639    3.7034   28.1156 C   0  0  1  0  0  0  0  0  0  0  0  0
   -7.8025    6.5389   27.9601 C   0  0  0  0  0  0  0  0  0  0  0  0
   -9.6552    4.9660   28.3153 C   0  0  0  0  0  0  0  0  0  0  0  0
  -10.0740    1.3618   27.2457 C   0  0  1  0  0  0  0  0  0  0  0  0
   -9.2256    0.3833   27.0958 C   0  0  0  0  0  0  0  0  0  0  0  0
  -11.4469    1.1233   27.4652 C   0  0  0  0  0  0  0  0  0  0  0  0
   -7.9934    0.4105   26.7089 C   0  0  0  0  0  0  0  0  0  0  0  0
   -7.3669    1.9022   26.6857 C   0  0  0  0  0  0  0  0  0  0  0  0
  -12.3634    2.0007   27.3418 C   0  0  0  0  0  0  0  0  0  0  0  0
  -13.7445    1.5303   27.4692 C   0  0  0  0  0  0  0  0  0  0  0  0
  -11.7474    3.5098   28.2498 C   0  0  0  0  0  0  0  0  0  0  0  0
  -14.7336    2.2929   27.4786 C   0  0  0  0  0  0  0  0  0  0  0  0
  -14.6476    3.5696   27.2422 C   0  0  0  0  0  0  0  0  0  0  0  0
  -15.7976    4.5088   27.2017 C   0  0  0  0  0  0  0  0  0  0  0  0
   -7.0562   -0.6024   26.4313 C   0  0  0  0  0  0  0  0  0  0  0  0
   -6.2491   -0.9994   27.4153 C   0  0  0  0  0  0  0  0  0  0  0  0
   -6.2857   -0.9725   28.5672 C   0  0  0  0  0  0  0  0  0  0  0  0
   -5.2956   -1.3870   29.6232 C   0  0  2  0  0  0  0  0  0  0  0  0
   -5.3264   -1.0753   31.0033 C   0  0  0  0  0  0  0  0  0  0  0  0
   -4.1406   -2.0506   29.1228 C   0  0  0  0  0  0  0  0  0  0  0  0
   -4.0061   -2.2153   27.7451 C   0  0  0  0  0  0  0  0  0  0  0  0
   -4.9807   -1.7183   26.8789 C   0  0  0  0  0  0  0  0  0  0  0  0
   -4.5880   -1.4570   31.8946 C   0  0  0  0  0  0  0  0  0  0  0  0
   -4.7049   -1.1515   33.2942 C   0  0  0  0  0  0  0  0  0  0  0  0
   -4.8281   -1.7493   34.2183 C   0  0  0  0  0  0  0  0  0  0  0  0
   -5.3235   -1.2372   35.5275 C   0  0  0  0  0  0  0  0  0  0  0  0
   -4.9589   -1.3493   36.7716 C   0  0  0  0  0  0  0  0  0  0  0  0
   -3.7821   -1.9490   37.0164 C   0  0  0  0  0  0  0  0  0  0  0  0
   -3.1560   -2.6092   35.9284 C   0  0  0  0  0  0  0  0  0  0  0  0
   -3.5501   -2.5536   34.6288 C   0  0  0  0  0  0  0  0  0  0  0  0
   -7.1822   -1.0240   25.2555 O   0  0  0  0  0  0  0  0  0  0  0  0
   -3.5100   -2.4137   31.6837 C   0  0  0  0  0  0  0  0  0  0  0  0
  1  2  1  0
  1  3  2  0
  4  2  1  1
  4  5  1  0
  3  6  1  0
  3  7  1  0
  5  7  1  6
  4  8  1  0
  8  9  1  1
  8 10  1  0
  9 11  2  0
  2 12  1  1
 11 12  1  0
 10 13  2  0
 13 14  1  0
  5 15  1  0
 13 15  1  0
 14 16  1  0
 16 17  2  3
 17 18  1  0
 11 19  1  0
 19 20  1  0
 20 21  2  0
 21 22  1  0
 22 23  1  6
 22 24  1  0
 24 25  2  0
 20 26  1  0
 25 26  1  0
 23 27  2  3
 27 28  1  0
 28 29  2  3
 29 30  1  0
 30 31  1  0
 31 32  2  0
 32 33  1  0
 29 34  1  0
 33 34  2  0
 19 35  2  0
 27 36  1  0
M  END
$$$$
