No_9424-complexes_sdf/6BKW-FPZ/2024-09-17-14-21-01/
     RDKit          3D

 11 12  0  0  0  0  0  0  0  0999 V2000
   -7.7129    4.2099   27.0854 C   0  0  0  0  0  0  0  0  0  0  0  0
   -8.2112    3.0637   26.9225 C   0  0  0  0  0  0  0  0  0  0  0  0
   -9.5629    2.7997   27.0678 C   0  0  0  0  0  0  0  0  0  0  0  0
   -8.5175    5.2777   27.4069 C   0  0  0  0  0  0  0  0  0  0  0  0
   -8.0092    6.6637   27.5739 C   0  0  0  0  0  0  0  0  0  0  0  0
  -10.4176    3.8271   27.3880 C   0  0  0  0  0  0  0  0  0  0  0  0
   -9.9510    5.1248   27.5773 C   0  0  0  0  0  0  0  0  0  0  0  0
  -10.0737    1.3991   26.9058 C   0  0  0  0  0  0  0  0  0  0  0  0
   -9.1780    0.3937   26.9952 C   0  0  0  0  0  0  0  0  0  0  0  0
   -7.7979    0.7203   26.9081 C   0  0  0  0  0  0  0  0  0  0  0  0
   -7.2931    1.9943   26.9457 C   0  0  0  0  0  0  0  0  0  0  0  0
  4  5  1  0
  1  2  2  0
  3  6  2  0
  6  7  1  0
  7  4  2  0
  4  1  1  0
  2  3  1  0
  3  8  1  0
  8  9  2  0
  9 10  1  0
 10 11  2  0
 11  2  1  0
M  END
$$$$
