No_9513-complexes_sdf/6BKW-FPZ/2024-09-17-14-21-01/
     RDKit          3D

 22 25  0  0  0  0  0  0  0  0999 V2000
   -7.7129    4.2099   27.0854 C   0  0  0  0  0  0  0  0  0  0  0  0
   -8.2112    3.0637   26.9225 C   0  0  0  0  0  0  0  0  0  0  0  0
   -7.5138    1.9223   27.4249 C   0  0  0  0  0  0  0  0  0  0  0  0
   -8.5309    5.4147   26.8151 C   0  0  0  0  0  0  0  0  0  0  0  0
   -8.1184    6.7672   27.1362 C   0  0  0  0  0  0  0  0  0  0  0  0
   -7.9453    0.5891   27.2424 C   0  0  0  0  0  0  0  0  0  0  0  0
   -9.2846    0.4513   26.8076 C   0  0  0  0  0  0  0  0  0  0  0  0
  -10.0369    1.5437   26.4212 C   0  0  0  0  0  0  0  0  0  0  0  0
   -9.5029    2.8247   26.5433 C   0  0  0  0  0  0  0  0  0  0  0  0
   -9.7637    5.2219   26.1466 C   0  0  0  0  0  0  0  0  0  0  0  0
  -10.3171    3.8973   26.0913 C   0  0  0  0  0  0  0  0  0  0  0  0
   -7.0637    6.8968   27.8312 N   0  0  0  0  0  0  0  0  0  0  0  0
   -8.7728    7.7591   26.7718 F   0  0  0  0  0  0  0  0  0  0  0  0
   -7.1332   -0.5070   27.7017 C   0  0  0  0  0  0  0  0  0  0  0  0
   -7.6629   -1.6814   28.1682 C   0  0  0  0  0  0  0  0  0  0  0  0
   -9.0744   -1.7457   28.3008 C   0  0  0  0  0  0  0  0  0  0  0  0
   -9.9091   -0.7513   27.3697 C   0  0  0  0  0  0  0  0  0  0  0  0
  -11.3301    1.2169   25.9314 C   0  0  0  0  0  0  0  0  0  0  0  0
  -11.9998    1.9792   25.5027 C   0  0  0  0  0  0  0  0  0  0  0  0
  -11.4857    3.4871   25.3668 C   0  0  0  0  0  0  0  0  0  0  0  0
  -11.2745   -0.9984   27.2683 C   0  0  0  0  0  0  0  0  0  0  0  0
  -11.9525   -2.0709   27.6815 C   0  0  0  0  0  0  0  0  0  0  0  0
  2  3  1  0
  3  6  1  0
  7  8  1  0
  5 12  1  0
  5 13  1  0
 17 21  1  0
 21 22  1  0
  5  4  1  0
  1  2  2  0
  2  9  1  0
 11 10  1  0
 10  4  2  0
  4  1  1  0
  6  7  2  0
  7 17  1  0
 17 16  2  0
 16 15  1  0
 15 14  2  0
 14  6  1  0
  8  9  2  0
  9 11  1  0
 11 20  2  0
 20 19  1  0
 19 18  2  0
 18  8  1  0
M  END
$$$$
