No_9804-complexes_sdf/6BKW-FPZ/2024-09-17-14-21-01/
     RDKit          3D

 16 16  0  0  0  0  0  0  0  0999 V2000
   -7.7129    4.2099   27.0854 C   0  0  0  0  0  0  0  0  0  0  0  0
   -8.2112    3.0637   26.9225 C   0  0  0  0  0  0  0  0  0  0  0  0
   -9.4446    2.8304   26.1868 C   0  0  0  0  0  0  0  0  0  0  0  0
   -8.4697    5.3956   26.7238 C   0  0  0  0  0  0  0  0  0  0  0  0
   -8.0091    6.7588   26.9904 C   0  0  0  0  0  0  0  0  0  0  0  0
  -10.1208    3.9213   25.7408 C   0  0  0  0  0  0  0  0  0  0  0  0
   -9.5939    5.2026   25.9665 C   0  0  0  0  0  0  0  0  0  0  0  0
   -8.6060    7.8403   26.5809 N   0  0  0  0  0  0  0  0  0  0  0  0
   -7.2224    6.8378   28.1200 O   0  0  0  0  0  0  0  0  0  0  0  0
   -7.4617    1.8147   27.3706 C   0  0  0  0  0  0  0  0  0  0  0  0
   -8.1129    0.8118   27.6690 F   0  0  0  0  0  0  0  0  0  0  0  0
   -6.6938    2.1554   28.5061 F   0  0  0  0  0  0  0  0  0  0  0  0
   -6.5521    1.4279   26.3692 F   0  0  0  0  0  0  0  0  0  0  0  0
  -11.2955    3.7632   24.9218 C   0  0  0  0  0  0  0  0  0  0  0  0
  -11.2400    3.9183   23.5663 C   0  0  0  0  0  0  0  0  0  0  0  0
  -12.3765    3.8055   22.7228 C   0  0  0  0  0  0  0  0  0  0  0  0
  4  5  1  0
  5  8  2  0
  5  9  1  0
  2 10  1  0
 10 11  1  0
 10 12  1  0
 10 13  1  0
  6 14  1  0
 14 15  2  3
 15 16  1  0
  1  2  2  0
  2  3  1  0
  3  6  2  0
  6  7  1  0
  7  4  2  0
  4  1  1  0
M  END
$$$$
