No_9232-complexes_sdf/6BKW-FPZ/2024-09-17-14-21-01/
     RDKit          3D

 15 16  0  0  0  0  0  0  0  0999 V2000
   -7.9040    3.9820   27.1177 C   0  0  0  0  0  0  0  0  0  0  0  0
   -7.8663    4.8694   27.9238 C   0  0  0  0  0  0  0  0  0  0  0  0
   -9.0953    3.1697   27.0532 C   0  0  0  0  0  0  0  0  0  0  0  0
  -10.1313    3.4052   27.8871 C   0  0  0  0  0  0  0  0  0  0  0  0
  -11.2910    2.5514   27.9289 C   0  0  0  0  0  0  0  0  0  0  0  0
   -8.9775    5.3451   28.7374 C   0  0  0  0  0  0  0  0  0  0  0  0
  -10.0738    4.4970   28.7375 C   0  0  0  0  0  0  0  0  0  0  0  0
  -11.1773    1.2444   28.1042 C   0  0  0  0  0  0  0  0  0  0  0  0
  -12.2233    0.3979   28.4059 C   0  0  0  0  0  0  0  0  0  0  0  0
  -12.0234   -0.9976   28.5752 C   0  0  0  0  0  0  0  0  0  0  0  0
  -10.7076   -1.4902   28.3904 C   0  0  0  0  0  0  0  0  0  0  0  0
   -9.6539   -0.6938   28.0388 C   0  0  0  0  0  0  0  0  0  0  0  0
   -9.8300    0.6487   27.9176 C   0  0  0  0  0  0  0  0  0  0  0  0
  -12.5886    3.1580   27.8189 C   0  0  0  0  0  0  0  0  0  0  0  0
  -13.3343    3.7301   28.5655 C   0  0  0  0  0  0  0  0  0  0  0  0
  4  5  1  0
  5  8  1  0
  5 14  1  0
 14 15  2  0
  1  2  2  0
  2  6  1  0
  6  7  2  0
  7  4  1  0
  4  3  2  0
  3  1  1  0
  8  9  2  0
  9 10  1  0
 10 11  2  0
 11 12  1  0
 12 13  2  0
 13  8  1  0
M  END
$$$$
