No_9352-complexes_sdf/6BKW-FPZ/2024-09-17-14-21-01/
     RDKit          3D

 40 44  0  0  0  0  0  0  0  0999 V2000
   -7.7129    4.2099   27.0854 C   0  0  0  0  0  0  0  0  0  0  0  0
   -8.2112    3.0637   26.9225 C   0  0  0  0  0  0  0  0  0  0  0  0
   -7.5138    1.9223   27.4249 C   0  0  0  0  0  0  0  0  0  0  0  0
   -8.5309    5.4147   26.8151 C   0  0  0  0  0  0  0  0  0  0  0  0
   -9.6817    5.2393   26.1100 C   0  0  0  0  0  0  0  0  0  0  0  0
  -10.1032    3.9957   25.8534 C   0  0  0  0  0  0  0  0  0  0  0  0
   -9.4034    2.8430   26.2573 C   0  0  0  0  0  0  0  0  0  0  0  0
   -6.1405    1.9750   27.8101 C   0  0  0  0  0  0  0  0  0  0  0  0
   -5.4233    0.8239   28.2180 C   0  0  0  0  0  0  0  0  0  0  0  0
   -6.0457   -0.4084   28.1509 C   0  0  0  0  0  0  0  0  0  0  0  0
   -7.8306    0.5269   27.2719 C   0  0  0  0  0  0  0  0  0  0  0  0
   -7.2818   -0.5033   27.7287 C   0  0  0  0  0  0  0  0  0  0  0  0
   -7.8867    6.9738   27.1472 Cl  0  0  0  0  0  0  0  0  0  0  0  0
   -4.1666    1.0371   28.6766 F   0  0  0  0  0  0  0  0  0  0  0  0
  -11.3533    3.5987   25.1719 C   0  0  0  0  0  0  0  0  0  0  0  0
  -11.2553    3.1290   23.9341 C   0  0  0  0  0  0  0  0  0  0  0  0
  -12.1913    2.8913   23.1227 C   0  0  0  0  0  0  0  0  0  0  0  0
  -13.5245    3.3746   23.5172 C   0  0  0  0  0  0  0  0  0  0  0  0
  -12.5802    4.1790   25.6015 C   0  0  0  0  0  0  0  0  0  0  0  0
  -13.6874    4.0387   24.7904 C   0  0  0  0  0  0  0  0  0  0  0  0
   -9.8865    2.6223   23.4472 C   0  0  0  0  0  0  0  0  0  0  0  0
   -9.5948    1.3181   23.7756 C   0  0  0  0  0  0  0  0  0  0  0  0
   -8.6607    0.6140   22.9552 C   0  0  0  0  0  0  0  0  0  0  0  0
   -8.0178   -0.5738   23.5084 C   0  0  0  0  0  0  0  0  0  0  0  0
   -8.8364   -1.5698   24.0275 C   0  0  0  0  0  0  0  0  0  0  0  0
  -10.0925   -1.0067   24.6307 C   0  0  0  0  0  0  0  0  0  0  0  0
  -10.4347    0.3885   24.5352 C   0  0  0  0  0  0  0  0  0  0  0  0
  -14.6718    3.2158   22.6800 C   0  0  0  0  0  0  0  0  0  0  0  0
  -10.8492   -1.8838   25.5159 C   0  0  0  0  0  0  0  0  0  0  0  0
  -12.0858   -2.1453   25.1477 C   0  0  0  0  0  0  0  0  0  0  0  0
  -12.9186   -2.9805   25.9702 C   0  0  0  0  0  0  0  0  0  0  0  0
  -12.3427   -3.4908   27.1375 C   0  0  0  0  0  0  0  0  0  0  0  0
  -11.0704   -3.2002   27.5292 C   0  0  0  0  0  0  0  0  0  0  0  0
  -10.2996   -2.3850   26.7534 C   0  0  0  0  0  0  0  0  0  0  0  0
   -6.9720   -1.1783   22.5208 C   0  0  0  0  0  0  0  0  0  0  0  0
   -6.5719   -2.4161   22.7484 N   0  0  0  0  0  0  0  0  0  0  0  0
   -6.3046   -3.2093   21.7193 C   0  0  0  0  0  0  0  0  0  0  0  0
   -5.5195   -4.0706   21.9463 C   0  0  0  0  0  0  0  0  0  0  0  0
   -6.9212   -3.0065   20.4399 C   0  0  0  0  0  0  0  0  0  0  0  0
   -5.0734   -4.9964   20.8648 C   0  0  0  0  0  0  0  0  0  0  0  0
  2  3  1  0
  4 13  1  0
  9 14  1  0
  6 15  1  0
 16 21  1  0
 21 22  1  0
 18 28  1  0
 26 29  1  0
 24 35  1  0
 35 36  1  0
 36 37  1  0
 37 38  2  3
 37 39  1  0
 38 40  1  0
 29 30  2  0
 30 31  1  0
 31 32  2  0
 32 33  1  0
 33 34  2  0
 34 29  1  0
 22 23  2  0
 23 24  1  0
 24 25  2  0
 25 26  1  0
 26 27  2  0
 27 22  1  0
  1  2  2  0
  2  7  1  0
  7  6  2  0
  6  5  1  0
  5  4  2  0
  4  1  1  0
  3  8  2  0
  8  9  1  0
  9 10  2  0
 10 12  1  0
 12 11  2  0
 11  3  1  0
 15 16  1  0
 16 17  2  0
 17 18  1  0
 18 20  2  0
 20 19  1  0
 19 15  2  0
M  END
$$$$
