No_9438-complexes_sdf/6BKW-FPZ/2024-09-17-14-21-01/
     RDKit          3D

 21 22  0  0  0  0  0  0  0  0999 V2000
   -7.7129    4.2099   27.0854 C   0  0  0  0  0  0  0  0  0  0  0  0
   -8.2112    3.0637   26.9225 C   0  0  0  0  0  0  0  0  0  0  0  0
   -7.5138    1.9223   27.4249 C   0  0  0  0  0  0  0  0  0  0  0  0
   -8.5309    5.4147   26.8151 C   0  0  0  0  0  0  0  0  0  0  0  0
   -9.5564    5.2865   26.3590 C   0  0  0  0  0  0  0  0  0  0  0  0
  -10.1594    4.0753   26.0281 C   0  0  0  0  0  0  0  0  0  0  0  0
   -9.4783    2.8876   26.3977 C   0  0  0  0  0  0  0  0  0  0  0  0
   -6.2127    1.9767   27.7896 N   0  0  0  0  0  0  0  0  0  0  0  0
   -5.5172    0.8238   28.1505 C   0  0  0  0  0  0  0  0  0  0  0  0
   -4.1618    0.9045   28.6575 C   0  0  0  0  0  0  0  0  0  0  0  0
   -6.1569   -0.4208   28.0399 C   0  0  0  0  0  0  0  0  0  0  0  0
   -8.2552    0.8561   27.6322 O   0  0  0  0  0  0  0  0  0  0  0  0
   -3.4849   -0.1714   29.1319 C   0  0  0  0  0  0  0  0  0  0  0  0
   -5.3540   -1.5570   28.5580 C   0  0  0  0  0  0  0  0  0  0  0  0
   -4.1009   -1.4076   29.0612 C   0  0  0  0  0  0  0  0  0  0  0  0
   -7.8789    6.7604   27.1971 C   0  0  0  0  0  0  0  0  0  0  0  0
   -8.5061    7.8724   26.7858 N   0  0  0  0  0  0  0  0  0  0  0  0
   -6.7907    6.8154   27.8282 O   0  0  0  0  0  0  0  0  0  0  0  0
   -3.3590   -2.5972   29.5707 C   0  0  0  0  0  0  0  0  0  0  0  0
   -3.8488   -3.5465   29.7900 O   0  0  0  0  0  0  0  0  0  0  0  0
   -2.0326   -2.3930   29.7393 O   0  0  0  0  0  0  0  0  0  0  0  0
  2  3  1  0
  3  8  1  0
  3 12  2  0
  4 16  1  0
 16 17  2  0
 16 18  1  0
 15 19  1  0
 19 20  2  0
 19 21  1  0
  8  9  1  0
  9 10  2  0
 10 13  1  0
 13 15  2  0
 15 14  1  0
 14 11  2  0
 11  9  1  0
  1  2  2  0
  2  7  1  0
  7  6  2  0
  6  5  1  0
  5  4  2  0
  4  1  1  0
M  END
$$$$
