No_9145-complexes_sdf/6BKW-FPZ/2024-09-17-14-21-01/
     RDKit          3D

 35 40  0  0  0  0  0  0  0  0999 V2000
   -7.9040    3.9820   27.1177 C   0  0  0  0  0  0  0  0  0  0  0  0
   -7.8663    4.8694   27.9238 C   0  0  0  0  0  0  0  0  0  0  0  0
   -9.0491    3.8523   26.2542 C   0  0  0  0  0  0  0  0  0  0  0  0
   -8.7661    5.9491   27.9690 C   0  0  0  0  0  0  0  0  0  0  0  0
   -9.9295    4.8502   26.2323 C   0  0  0  0  0  0  0  0  0  0  0  0
   -9.8077    5.9288   27.0933 C   0  0  0  0  0  0  0  0  0  0  0  0
   -9.0726    2.7074   25.3087 C   0  0  1  0  0  0  0  0  0  0  0  0
   -8.5824    1.5503   25.7138 N   0  0  0  0  0  0  0  0  0  0  0  0
   -8.0005    1.3657   26.8322 C   0  0  0  0  0  0  0  0  0  0  0  0
   -7.3437    2.5540   27.4783 C   0  0  0  0  0  0  0  0  0  0  0  0
   -9.9727    2.8151   24.1930 C   0  0  0  0  0  0  0  0  0  0  0  0
   -8.7766    0.3408   24.9639 C   0  0  0  0  0  0  0  0  0  0  0  0
   -9.6943   -0.3747   24.9683 C   0  0  0  0  0  0  0  0  0  0  0  0
   -9.9282   -1.3550   24.1899 C   0  0  0  0  0  0  0  0  0  0  0  0
   -7.7410    0.1638   23.9535 C   0  0  0  0  0  0  0  0  0  0  0  0
   -7.7380   -0.8105   23.0781 C   0  0  0  0  0  0  0  0  0  0  0  0
   -8.8729   -1.6930   23.1681 C   0  0  0  0  0  0  0  0  0  0  0  0
  -11.2930    3.1493   24.4503 C   0  0  0  0  0  0  0  0  0  0  0  0
  -11.9282    3.2510   23.2172 C   0  0  0  0  0  0  0  0  0  0  0  0
  -11.2656    2.9626   22.0990 C   0  0  0  0  0  0  0  0  0  0  0  0
   -9.7616    2.6136   22.8579 C   0  0  0  0  0  0  0  0  0  0  0  0
  -13.3816    3.6710   23.0780 C   0  0  0  0  0  0  0  0  0  0  0  0
   -9.0449   -2.7701   22.2353 C   0  0  1  0  0  0  0  0  0  0  0  0
   -9.4913   -4.3458   22.3428 Br  0  0  0  0  0  0  0  0  0  0  0  0
   -8.8552   -2.2785   20.7586 C   0  0  0  0  0  0  0  0  0  0  0  0
   -8.6239   -3.0885   19.7947 C   0  0  0  0  0  0  0  0  0  0  0  0
   -7.6957   -3.7489   19.7597 C   0  0  0  0  0  0  0  0  0  0  0  0
   -6.6495   -3.6677   20.7444 C   0  0  0  0  0  0  0  0  0  0  0  0
   -5.9003   -4.6905   21.1405 C   0  0  0  0  0  0  0  0  0  0  0  0
   -4.8066   -4.5176   22.0543 C   0  0  0  0  0  0  0  0  0  0  0  0
   -4.7688   -3.3018   22.7920 C   0  0  0  0  0  0  0  0  0  0  0  0
   -5.5452   -2.2526   22.3882 C   0  0  0  0  0  0  0  0  0  0  0  0
   -6.4725   -2.3990   21.4293 C   0  0  0  0  0  0  0  0  0  0  0  0
   -6.4892   -1.3843   22.3498 C   0  0  2  0  0  0  0  0  0  0  0  0
   -5.5848   -0.0346   22.0568 C   0  0  0  0  0  0  0  0  0  0  0  0
  3  7  1  0
  7  8  1  0
  8  9  1  0
  1 10  1  0
  7 11  1  1
  8 12  1  0
 11 18  1  0
 18 19  2  0
 19 20  1  0
 11 21  1  0
 20 21  1  0
 19 22  1  0
 17 23  1  0
 23 24  1  6
 23 25  1  0
 25 26  2  3
 26 27  1  0
 27 28  1  0
 16 34  1  0
 32 34  1  0
 34 35  1  1
 10  9  1  0
 12 13  2  0
 13 14  1  0
 14 17  2  0
 17 16  1  0
 16 15  2  0
 15 12  1  0
 28 29  2  0
 29 30  1  0
 30 31  2  0
 31 32  1  0
 32 33  2  0
 33 28  1  0
  1  2  2  0
  2  4  1  0
  4  6  2  0
  6  5  1  0
  5  3  2  0
  3  1  1  0
M  END
$$$$
