No_9433-complexes_sdf/6BKW-FPZ/2024-09-17-14-21-01/
     RDKit          3D

 24 27  0  0  0  0  0  0  0  0999 V2000
   -7.7129    4.2099   27.0854 C   0  0  0  0  0  0  0  0  0  0  0  0
   -8.2112    3.0637   26.9225 C   0  0  0  0  0  0  0  0  0  0  0  0
   -7.5138    1.9223   27.4249 C   0  0  0  0  0  0  0  0  0  0  0  0
   -8.5309    5.4147   26.8151 C   0  0  0  0  0  0  0  0  0  0  0  0
   -8.1184    6.7672   27.1362 C   0  0  0  0  0  0  0  0  0  0  0  0
   -6.1372    2.1405   27.7998 C   0  0  0  0  0  0  0  0  0  0  0  0
   -5.7091    3.4418   28.0019 C   0  0  0  0  0  0  0  0  0  0  0  0
   -6.4145    4.4584   27.7237 C   0  0  0  0  0  0  0  0  0  0  0  0
   -8.9060    7.8672   26.7640 C   0  0  0  0  0  0  0  0  0  0  0  0
   -5.3573    0.9565   28.2116 C   0  0  0  0  0  0  0  0  0  0  0  0
   -4.1201    1.0860   28.7973 C   0  0  0  0  0  0  0  0  0  0  0  0
   -3.4010   -0.1557   29.1480 C   0  0  0  0  0  0  0  0  0  0  0  0
   -3.9559   -1.3321   29.0028 C   0  0  0  0  0  0  0  0  0  0  0  0
   -5.7931   -0.3716   28.0559 C   0  0  0  0  0  0  0  0  0  0  0  0
   -5.1813   -1.4509   28.4235 C   0  0  0  0  0  0  0  0  0  0  0  0
   -9.6903    5.2670   26.0630 C   0  0  0  0  0  0  0  0  0  0  0  0
  -10.2724    4.0731   26.0177 C   0  0  0  0  0  0  0  0  0  0  0  0
   -9.5454    2.8918   26.3872 C   0  0  0  0  0  0  0  0  0  0  0  0
  -10.0430    1.5338   26.1300 C   0  0  0  0  0  0  0  0  0  0  0  0
  -10.2909    1.2115   24.8937 C   0  0  0  0  0  0  0  0  0  0  0  0
  -10.6814   -0.1398   24.5718 C   0  0  0  0  0  0  0  0  0  0  0  0
  -10.7583   -1.0265   25.5835 C   0  0  0  0  0  0  0  0  0  0  0  0
  -10.4766   -0.6924   26.8955 C   0  0  0  0  0  0  0  0  0  0  0  0
  -10.0697    0.6169   27.2374 C   0  0  0  0  0  0  0  0  0  0  0  0
  5  9  1  0
  6 10  1  0
 18 19  1  0
  5  4  1  0
 19 20  2  0
 20 21  1  0
 21 22  2  0
 22 23  1  0
 23 24  2  0
 24 19  1  0
  2 18  1  0
 18 17  2  0
 17 16  1  0
 16  4  2  0
  4  1  1  0
 10 11  2  0
 11 12  1  0
 12 13  2  0
 13 15  1  0
 15 14  2  0
 14 10  1  0
  1  2  1  0
  2  3  2  0
  3  6  1  0
  6  7  2  0
  7  8  1  0
  8  1  2  0
M  END
$$$$
