No_9156-complexes_sdf/6BKW-FPZ/2024-09-17-14-21-01/
     RDKit          3D

 31 33  0  0  0  0  0  0  0  0999 V2000
   -7.9040    3.9820   27.1177 C   0  0  0  0  0  0  0  0  0  0  0  0
   -8.2057    2.8231   26.8733 C   0  0  0  0  0  0  0  0  0  0  0  0
   -9.2962    2.4021   26.1155 C   0  0  0  0  0  0  0  0  0  0  0  0
   -8.7358    5.0662   26.5917 C   0  0  0  0  0  0  0  0  0  0  0  0
   -9.7618    4.7023   25.7546 C   0  0  0  0  0  0  0  0  0  0  0  0
  -10.0066    3.4105   25.4922 C   0  0  0  0  0  0  0  0  0  0  0  0
   -8.3936    6.4769   26.8843 C   0  0  0  0  0  0  0  0  0  0  0  0
   -8.6493    6.7879   28.0308 F   0  0  0  0  0  0  0  0  0  0  0  0
   -7.0512    6.6926   26.7340 F   0  0  0  0  0  0  0  0  0  0  0  0
   -8.9422    7.2996   25.9424 F   0  0  0  0  0  0  0  0  0  0  0  0
   -7.5310    1.5420   27.4406 C   0  0  0  0  0  0  0  0  0  0  0  0
   -6.2154    1.6467   27.7992 N   0  0  0  0  0  0  0  0  0  0  0  0
   -5.5744    0.5443   28.2414 C   0  0  0  0  0  0  0  0  0  0  0  0
   -6.1934   -0.6373   28.2662 C   0  0  0  0  0  0  0  0  0  0  0  0
   -7.9529    0.2707   27.4761 C   0  0  0  0  0  0  0  0  0  0  0  0
   -7.4249   -0.7683   27.9460 C   0  0  0  0  0  0  0  0  0  0  0  0
   -4.2064    0.5699   28.6524 N   0  0  0  0  0  0  0  0  0  0  0  0
   -3.5760   -0.3298   29.3605 C   0  0  0  0  0  0  0  0  0  0  0  0
   -4.1830   -1.5285   29.5298 C   0  0  0  0  0  0  0  0  0  0  0  0
   -5.4554   -1.7190   29.0574 C   0  0  0  0  0  0  0  0  0  0  0  0
   -3.4474   -2.5980   30.2406 C   0  0  0  0  0  0  0  0  0  0  0  0
   -2.4383   -2.5654   30.4712 N   0  0  0  0  0  0  0  0  0  0  0  0
   -4.1958   -3.6386   30.5395 O   0  0  0  0  0  0  0  0  0  0  0  0
   -1.6044   -3.6450   31.2089 C   0  0  0  0  0  0  0  0  0  0  0  0
   -1.4203   -3.4507   32.4799 C   0  0  0  0  0  0  0  0  0  0  0  0
   -1.9154   -2.3019   33.0197 C   0  0  0  0  0  0  0  0  0  0  0  0
   -1.8756   -1.9829   34.5021 C   0  0  0  0  0  0  0  0  0  0  0  0
   -2.4542   -0.7868   34.9971 C   0  0  0  0  0  0  0  0  0  0  0  0
   -2.5216   -0.5854   36.3791 C   0  0  0  0  0  0  0  0  0  0  0  0
   -1.8753   -1.4386   37.2495 C   0  0  0  0  0  0  0  0  0  0  0  0
   -1.2852   -2.5403   36.7269 C   0  0  0  0  0  0  0  0  0  0  0  0
  4  7  1  0
  7  8  1  0
  7  9  1  0
  7 10  1  0
  2 11  1  0
 19 21  1  0
 21 22  1  0
 21 23  2  0
 22 24  1  0
 24 25  1  0
 25 26  2  3
 26 27  1  0
 27 28  2  3
 28 29  1  0
 29 30  2  3
 30 31  1  0
  1  2  2  0
  2  3  1  0
  3  6  2  0
  6  5  1  0
  5  4  2  0
  4  1  1  0
 14 20  2  0
 20 19  1  0
 19 18  2  0
 18 17  1  0
 17 13  2  0
 11 12  2  0
 12 13  1  0
 13 14  1  0
 14 16  1  0
 16 15  2  0
 15 11  1  0
M  END
$$$$
