No_9095-complexes_sdf/6BKW-FPZ/2024-09-17-14-21-01/
     RDKit          3D

 14 15  0  0  0  0  0  0  0  0999 V2000
   -7.7129    4.2099   27.0854 C   0  0  0  0  0  0  0  0  0  0  0  0
   -8.2112    3.0637   26.9225 C   0  0  0  0  0  0  0  0  0  0  0  0
   -9.4446    2.8304   26.1868 C   0  0  0  0  0  0  0  0  0  0  0  0
   -8.4697    5.3956   26.7238 C   0  0  0  0  0  0  0  0  0  0  0  0
   -9.6172    5.2111   25.9513 C   0  0  0  0  0  0  0  0  0  0  0  0
  -10.0424    3.9782   25.6873 C   0  0  0  0  0  0  0  0  0  0  0  0
   -7.5056    1.8167   27.4088 C   0  0  0  0  0  0  0  0  0  0  0  0
   -6.4674    2.0948   28.1111 F   0  0  0  0  0  0  0  0  0  0  0  0
   -7.5802    0.5750   26.6235 C   0  0  0  0  0  0  0  0  0  0  0  0
   -8.5622    0.0763   26.2897 C   0  0  0  0  0  0  0  0  0  0  0  0
   -8.5918   -1.1846   25.6057 C   0  0  0  0  0  0  0  0  0  0  0  0
   -7.3730   -1.7672   25.4661 C   0  0  0  0  0  0  0  0  0  0  0  0
   -6.4095   -0.1943   26.5508 C   0  0  0  0  0  0  0  0  0  0  0  0
   -6.2279   -1.2960   25.9558 C   0  0  0  0  0  0  0  0  0  0  0  0
  2  7  1  0
  7  8  1  0
  7  9  1  0
  1  2  2  0
  2  3  1  0
  3  6  2  0
  6  5  1  0
  5  4  2  0
  4  1  1  0
  9 10  2  0
 10 11  1  0
 11 12  2  0
 12 14  1  0
 14 13  2  0
 13  9  1  0
M  END
$$$$
