No_9962-complexes_sdf/6BKW-FPZ/2024-09-17-14-21-01/
     RDKit          3D

 16 17  0  0  0  0  0  0  0  0999 V2000
   -7.7129    4.2099   27.0854 C   0  0  0  0  0  0  0  0  0  0  0  0
   -7.7814    5.1722   27.8972 C   0  0  0  0  0  0  0  0  0  0  0  0
   -8.8776    3.8408   26.3416 C   0  0  0  0  0  0  0  0  0  0  0  0
   -9.7970    4.1983   26.5823 C   0  0  0  0  0  0  0  0  0  0  0  0
  -10.0953    5.3290   27.4373 C   0  0  0  0  0  0  0  0  0  0  0  0
   -8.9979    5.8673   28.1042 C   0  0  0  0  0  0  0  0  0  0  0  0
  -11.1016    3.7895   25.7901 C   0  0  0  0  0  0  0  0  0  0  0  0
  -12.2371    3.5581   26.1108 C   0  0  0  0  0  0  0  0  0  0  0  0
  -12.4872    3.5568   27.5341 C   0  0  0  0  0  0  0  0  0  0  0  0
  -11.5541    3.1825   28.3939 C   0  0  0  0  0  0  0  0  0  0  0  0
  -10.7722    3.6782   24.2818 C   0  0  0  0  0  0  0  0  0  0  0  0
  -11.6410    3.8509   23.3411 C   0  0  0  0  0  0  0  0  0  0  0  0
  -11.2402    3.6995   21.9890 C   0  0  0  0  0  0  0  0  0  0  0  0
   -9.9895    3.2052   21.7154 C   0  0  0  0  0  0  0  0  0  0  0  0
   -9.1969    2.6864   22.7701 C   0  0  0  0  0  0  0  0  0  0  0  0
   -9.5187    2.9352   24.0759 C   0  0  0  0  0  0  0  0  0  0  0  0
  4  7  1  0
  7  8  1  0
  8  9  2  3
  9 10  1  0
  7 11  1  0
 11 12  2  0
 12 13  1  0
 13 14  2  0
 14 15  1  0
 15 16  2  0
 16 11  1  0
  1  2  2  0
  2  6  1  0
  6  5  2  0
  5  4  1  0
  4  3  2  0
  3  1  1  0
M  END
$$$$
