No_9820-complexes_sdf/6BKW-FPZ/2024-09-17-14-21-01/
     RDKit          3D

 15 16  0  0  0  0  0  0  0  0999 V2000
   -7.9040    3.9820   27.1177 C   0  0  0  0  0  0  0  0  0  0  0  0
   -7.8663    4.8694   27.9238 C   0  0  0  0  0  0  0  0  0  0  0  0
   -9.0501    3.8017   26.2617 C   0  0  0  0  0  0  0  0  0  0  0  0
   -9.1826    2.7026   25.3575 C   0  0  0  0  0  0  0  0  0  0  0  0
   -8.6940    6.0131   27.8614 C   0  0  0  0  0  0  0  0  0  0  0  0
   -9.7382    4.9916   26.1006 C   0  0  0  0  0  0  0  0  0  0  0  0
   -9.6356    6.0254   26.9506 C   0  0  0  0  0  0  0  0  0  0  0  0
  -10.1305    2.7675   24.3605 C   0  0  0  0  0  0  0  0  0  0  0  0
   -9.7091    2.5744   23.1524 C   0  0  0  0  0  0  0  0  0  0  0  0
  -10.4859    2.8762   22.0039 C   0  0  0  0  0  0  0  0  0  0  0  0
   -9.9940    2.6498   20.7298 C   0  0  0  0  0  0  0  0  0  0  0  0
  -10.6454    3.1229   19.6067 C   0  0  0  0  0  0  0  0  0  0  0  0
  -11.9771    3.6868   19.7597 C   0  0  0  0  0  0  0  0  0  0  0  0
  -11.7469    3.5856   22.0510 C   0  0  0  0  0  0  0  0  0  0  0  0
  -12.4506    3.9301   20.9780 C   0  0  0  0  0  0  0  0  0  0  0  0
  3  4  1  0
  4  8  2  3
  8  9  1  0
  9 10  1  0
 10 11  2  0
 11 12  1  0
 12 13  2  0
 13 15  1  0
 15 14  2  0
 14 10  1  0
  1  2  2  0
  2  5  1  0
  5  7  2  0
  7  6  1  0
  6  3  2  0
  3  1  1  0
M  END
$$$$
