No_9282-complexes_sdf/6BKW-FPZ/2024-09-17-14-21-01/
     RDKit          3D

 19 20  0  0  0  0  0  0  0  0999 V2000
   -7.9040    3.9820   27.1177 C   0  0  0  0  0  0  0  0  0  0  0  0
   -8.2057    2.8231   26.8733 C   0  0  0  0  0  0  0  0  0  0  0  0
   -7.4766    1.7477   27.4593 C   0  0  0  0  0  0  0  0  0  0  0  0
   -8.7468    5.1251   26.6967 C   0  0  0  0  0  0  0  0  0  0  0  0
   -9.7234    4.8589   25.8202 C   0  0  0  0  0  0  0  0  0  0  0  0
   -9.9711    3.5858   25.4266 C   0  0  0  0  0  0  0  0  0  0  0  0
   -9.2266    2.4957   25.9600 C   0  0  0  0  0  0  0  0  0  0  0  0
   -7.8305    0.3697   27.3235 C   0  0  0  0  0  0  0  0  0  0  0  0
   -7.0984   -0.5913   27.8882 C   0  0  0  0  0  0  0  0  0  0  0  0
   -5.8352   -0.3087   28.4464 C   0  0  0  0  0  0  0  0  0  0  0  0
   -5.3580    1.0300   28.4203 C   0  0  0  0  0  0  0  0  0  0  0  0
   -6.0819    1.9892   27.9122 C   0  0  0  0  0  0  0  0  0  0  0  0
   -8.4158    6.5133   27.1036 C   0  0  0  0  0  0  0  0  0  0  0  0
   -7.9309    7.5872   27.0438 N   0  0  0  0  0  0  0  0  0  0  0  0
   -5.0041   -1.3991   29.0363 C   0  0  0  0  0  0  0  0  0  0  0  0
   -4.1046   -1.6051   28.6327 C   0  0  0  0  0  0  0  0  0  0  0  0
   -3.4078   -0.8926   27.4983 C   0  0  0  0  0  0  0  0  0  0  0  0
   -2.5642    0.1438   27.8384 C   0  0  0  0  0  0  0  0  0  0  0  0
   -2.4400    1.1866   26.9670 C   0  0  0  0  0  0  0  0  0  0  0  0
  2  3  1  0
  4 13  1  0
 13 14  3  0
 10 15  1  0
 15 16  2  3
 16 17  1  0
 17 18  2  3
 18 19  1  0
  3  8  2  0
  8  9  1  0
  9 10  2  0
 10 11  1  0
 11 12  2  0
 12  3  1  0
  1  2  2  0
  2  7  1  0
  7  6  2  0
  6  5  1  0
  5  4  2  0
  4  1  1  0
M  END
$$$$
