No_9984-complexes_sdf/6BKW-FPZ/2024-09-17-14-21-01/
     RDKit          3D

 21 24  0  0  0  0  0  0  0  0999 V2000
   -7.7129    4.2099   27.0854 C   0  0  0  0  0  0  0  0  0  0  0  0
   -8.2112    3.0637   26.9225 C   0  0  0  0  0  0  0  0  0  0  0  0
   -9.5629    2.7997   27.0678 C   0  0  0  0  0  0  0  0  0  0  0  0
   -8.5911    5.3704   27.2036 C   0  0  0  0  0  0  0  0  0  0  0  0
   -9.9544    5.1489   27.1401 C   0  0  0  0  0  0  0  0  0  0  0  0
  -10.4577    3.9280   27.0818 C   0  0  0  0  0  0  0  0  0  0  0  0
   -8.0770    6.9937   27.4131 Cl  0  0  0  0  0  0  0  0  0  0  0  0
  -10.0523    1.3991   26.9286 C   0  0  0  0  0  0  0  0  0  0  0  0
   -9.1274    0.4371   27.0635 C   0  0  0  0  0  0  0  0  0  0  0  0
   -9.5347   -0.9387   27.0902 C   0  0  0  0  0  0  0  0  0  0  0  0
  -10.9282   -1.1849   27.1343 C   0  0  0  0  0  0  0  0  0  0  0  0
  -11.2982    0.9747   27.1653 C   0  0  0  0  0  0  0  0  0  0  0  0
  -11.7797   -0.2219   27.2590 C   0  0  0  0  0  0  0  0  0  0  0  0
  -13.2372   -0.5601   27.3633 C   0  0  0  0  0  0  0  0  0  0  0  0
  -14.1211    0.4153   27.7051 C   0  0  0  0  0  0  0  0  0  0  0  0
  -15.4519    0.1750   27.9032 C   0  0  0  0  0  0  0  0  0  0  0  0
  -16.3526    1.2116   28.2810 C   0  0  0  0  0  0  0  0  0  0  0  0
  -15.8143    2.5175   28.4302 C   0  0  0  0  0  0  0  0  0  0  0  0
  -14.4789    2.8135   28.2375 C   0  0  0  0  0  0  0  0  0  0  0  0
  -13.6364    1.8356   27.9623 C   0  0  0  0  0  0  0  0  0  0  0  0
  -12.3887    2.1320   27.5958 C   0  0  0  0  0  0  0  0  0  0  0  0
  4  7  1  0
  3  8  1  0
 15 16  2  0
 16 17  1  0
 17 18  2  0
 18 19  1  0
 19 20  2  0
 13 14  2  0
 14 15  1  0
 15 20  1  0
 20 21  1  0
 21 12  2  0
  1  2  2  0
  2  3  1  0
  3  6  2  0
  6  5  1  0
  5  4  2  0
  4  1  1  0
  8  9  2  0
  9 10  1  0
 10 11  2  0
 11 13  1  0
 13 12  1  0
 12  8  1  0
M  END
$$$$
