No_9211-complexes_sdf/6BKW-FPZ/2024-09-17-14-21-01/
     RDKit          3D

 14 15  0  0  0  0  0  0  0  0999 V2000
   -7.9040    3.9820   27.1177 C   0  0  0  0  0  0  0  0  0  0  0  0
   -8.2057    2.8231   26.8733 C   0  0  0  0  0  0  0  0  0  0  0  0
   -7.0130    4.3706   28.1140 C   0  0  0  0  0  0  0  0  0  0  0  0
   -9.4741    2.4344   26.3718 C   0  0  0  0  0  0  0  0  0  0  0  0
  -10.2009    3.3542   25.7490 C   0  0  0  0  0  0  0  0  0  0  0  0
   -9.8070    4.7433   25.8809 C   0  0  0  0  0  0  0  0  0  0  0  0
   -8.7506    5.0992   26.6368 C   0  0  0  0  0  0  0  0  0  0  0  0
   -8.4236    6.4704   26.9056 C   0  0  0  0  0  0  0  0  0  0  0  0
   -7.3033    6.8085   27.6738 C   0  0  0  0  0  0  0  0  0  0  0  0
   -6.7422    5.7947   28.3633 C   0  0  0  0  0  0  0  0  0  0  0  0
   -7.3369    1.6656   27.3973 C   0  0  0  0  0  0  0  0  0  0  0  0
   -5.9569    1.8338   27.5600 C   0  0  0  0  0  0  0  0  0  0  0  0
   -5.1709    0.7702   28.0561 C   0  0  0  0  0  0  0  0  0  0  0  0
   -5.6880   -0.4897   28.2763 C   0  0  0  0  0  0  0  0  0  0  0  0
  2 11  1  0
 11 12  2  3
 12 13  1  0
 13 14  2  0
  1  3  1  0
  3 10  2  0
 10  9  1  0
  9  8  2  0
  8  7  1  0
  1  2  2  0
  2  4  1  0
  4  5  2  0
  5  6  1  0
  6  7  2  0
  7  1  1  0
M  END
$$$$
