No_9229-complexes_sdf/6BKW-FPZ/2024-09-17-14-21-01/
     RDKit          3D

 28 31  0  0  0  0  0  0  0  0999 V2000
   -7.7129    4.2099   27.0854 C   0  0  0  0  0  0  0  0  0  0  0  0
   -8.2112    3.0637   26.9225 C   0  0  0  0  0  0  0  0  0  0  0  0
   -7.5138    1.9223   27.4249 C   0  0  0  0  0  0  0  0  0  0  0  0
   -8.5309    5.4147   26.8151 C   0  0  0  0  0  0  0  0  0  0  0  0
   -9.6817    5.2393   26.1100 C   0  0  0  0  0  0  0  0  0  0  0  0
  -10.1032    3.9957   25.8534 C   0  0  0  0  0  0  0  0  0  0  0  0
   -9.4034    2.8430   26.2573 C   0  0  0  0  0  0  0  0  0  0  0  0
   -6.1405    1.9750   27.8101 C   0  0  0  0  0  0  0  0  0  0  0  0
   -5.4233    0.8239   28.2180 C   0  0  0  0  0  0  0  0  0  0  0  0
   -6.0457   -0.4084   28.1509 C   0  0  0  0  0  0  0  0  0  0  0  0
   -7.9936    0.5817   27.3565 C   0  0  0  0  0  0  0  0  0  0  0  0
   -7.3459   -0.4872   27.7836 C   0  0  0  0  0  0  0  0  0  0  0  0
   -7.9770    6.7604   27.0965 C   0  0  0  0  0  0  0  0  0  0  0  0
   -8.6346    7.8216   26.7726 O   0  0  0  0  0  0  0  0  0  0  0  0
   -7.0663    6.8634   28.0970 O   0  0  0  0  0  0  0  0  0  0  0  0
   -3.6252    1.0675   28.7670 Br  0  0  0  0  0  0  0  0  0  0  0  0
  -11.3658    3.8294   25.0672 C   0  0  0  0  0  0  0  0  0  0  0  0
  -11.4891    4.4393   23.9924 C   0  0  0  0  0  0  0  0  0  0  0  0
  -12.5990    4.3158   23.1042 C   0  0  0  0  0  0  0  0  0  0  0  0
  -13.6772    3.6375   23.6186 C   0  0  0  0  0  0  0  0  0  0  0  0
  -12.5228    3.2124   25.6355 C   0  0  0  0  0  0  0  0  0  0  0  0
  -13.6455    3.1450   24.8898 C   0  0  0  0  0  0  0  0  0  0  0  0
  -12.5147    2.6500   27.0102 C   0  0  0  0  0  0  0  0  0  0  0  0
  -12.7340    3.4867   28.0719 C   0  0  0  0  0  0  0  0  0  0  0  0
  -12.6326    2.9840   29.4135 C   0  0  0  0  0  0  0  0  0  0  0  0
  -12.4089    1.6072   29.5968 C   0  0  0  0  0  0  0  0  0  0  0  0
  -12.1510    0.8056   28.4907 C   0  0  0  0  0  0  0  0  0  0  0  0
  -12.1884    1.3340   27.1761 C   0  0  0  0  0  0  0  0  0  0  0  0
  2  3  1  0
  4 13  1  0
 13 14  2  0
 13 15  1  0
  9 16  1  0
  6 17  1  0
 21 23  1  0
 17 18  2  0
 18 19  1  0
 19 20  2  0
 20 22  1  0
 22 21  2  0
 21 17  1  0
  3  8  2  0
  8  9  1  0
  9 10  2  0
 10 12  1  0
 12 11  2  0
 11  3  1  0
  1  2  2  0
  2  7  1  0
  7  6  2  0
  6  5  1  0
  5  4  2  0
  4  1  1  0
 23 24  2  0
 24 25  1  0
 25 26  2  0
 26 27  1  0
 27 28  2  0
 28 23  1  0
M  END
$$$$
