No_9091-complexes_sdf/6BKW-FPZ/2024-09-17-14-21-01/
     RDKit          3D

 22 25  0  0  0  0  0  0  0  0999 V2000
   -7.7129    4.2099   27.0854 C   0  0  0  0  0  0  0  0  0  0  0  0
   -8.2112    3.0637   26.9225 C   0  0  0  0  0  0  0  0  0  0  0  0
   -7.0021    4.5281   28.2396 C   0  0  0  0  0  0  0  0  0  0  0  0
   -9.4237    2.7810   26.2714 C   0  0  0  0  0  0  0  0  0  0  0  0
   -9.9782    1.4391   26.2525 C   0  0  0  0  0  0  0  0  0  0  0  0
   -9.2622    0.4320   26.8729 C   0  0  0  0  0  0  0  0  0  0  0  0
   -8.0745    0.6657   27.5462 C   0  0  0  0  0  0  0  0  0  0  0  0
   -7.4723    1.9739   27.6189 C   0  0  0  0  0  0  0  0  0  0  0  0
   -6.8855    5.9211   28.5310 C   0  0  0  0  0  0  0  0  0  0  0  0
   -8.6136    5.3606   26.9145 C   0  0  0  0  0  0  0  0  0  0  0  0
   -8.2417    6.5813   27.2968 C   0  0  0  0  0  0  0  0  0  0  0  0
   -9.6548    5.3242   25.8444 C   0  0  0  0  0  0  0  0  0  0  0  0
  -10.2185    3.8420   25.7108 C   0  0  1  0  0  0  0  0  0  0  0  0
  -11.2824    3.6602   24.8183 C   0  0  0  0  0  0  0  0  0  0  0  0
  -11.0832    3.0839   23.6058 C   0  0  0  0  0  0  0  0  0  0  0  0
  -11.9700    2.8880   22.7442 C   0  0  0  0  0  0  0  0  0  0  0  0
  -12.5503    3.9284   25.3145 C   0  0  0  0  0  0  0  0  0  0  0  0
  -13.6567    3.7879   24.4255 C   0  0  0  0  0  0  0  0  0  0  0  0
  -13.3684    3.2784   23.1482 C   0  0  0  0  0  0  0  0  0  0  0  0
   -9.8436   -0.9019   26.8794 C   0  0  0  0  0  0  0  0  0  0  0  0
  -10.9262   -1.0995   26.9162 O   0  0  0  0  0  0  0  0  0  0  0  0
   -9.0174   -1.9428   27.0447 O   0  0  0  0  0  0  0  0  0  0  0  0
  1  2  1  0
  1  3  2  0
  3  9  1  0
  1 10  1  0
  9 11  1  0
 10 11  2  0
 10 12  1  0
  4 13  1  0
 12 13  1  0
 13 14  1  6
  6 20  1  0
 20 21  2  0
 20 22  1  0
 14 15  2  0
 15 16  1  0
 16 19  2  0
 19 18  1  0
 18 17  2  0
 17 14  1  0
  2  4  2  0
  4  5  1  0
  5  6  2  0
  6  7  1  0
  7  8  2  0
  8  2  1  0
M  END
$$$$
