No_9598-complexes_sdf/6BKW-FPZ/2024-09-17-14-21-01/
     RDKit          3D

 33 37  0  0  0  0  0  0  0  0999 V2000
   -7.2496    3.8871   27.4508 C   0  0  0  0  0  0  0  0  0  0  0  0
   -7.6161    2.7143   27.1523 C   0  0  0  0  0  0  0  0  0  0  0  0
   -6.9719    1.5838   27.5324 C   0  0  0  0  0  0  0  0  0  0  0  0
   -7.4590    0.2827   27.2615 C   0  0  0  0  0  0  0  0  0  0  0  0
   -8.7521    2.5117   26.3068 C   0  0  0  0  0  0  0  0  0  0  0  0
   -9.2100    1.2391   25.9794 C   0  0  0  0  0  0  0  0  0  0  0  0
   -8.5134    0.1313   26.5112 C   0  0  0  0  0  0  0  0  0  0  0  0
   -8.0343    5.0565   27.1688 C   0  0  0  0  0  0  0  0  0  0  0  0
   -7.6925    6.3666   27.7843 C   0  0  0  0  0  0  0  0  0  0  0  0
   -9.0236    5.1045   26.1303 C   0  0  0  0  0  0  0  0  0  0  0  0
   -9.5323    3.6638   25.8184 C   0  0  0  0  0  0  0  0  0  0  0  0
  -10.5783    3.6061   24.8621 C   0  0  0  0  0  0  0  0  0  0  0  0
  -10.9189    2.8203   24.1574 C   0  0  0  0  0  0  0  0  0  0  0  0
  -11.9863    2.8383   23.2206 C   0  0  0  0  0  0  0  0  0  0  0  0
  -12.6209    4.0993   23.2335 C   0  0  0  0  0  0  0  0  0  0  0  0
  -12.2809    5.1107   24.0527 C   0  0  0  0  0  0  0  0  0  0  0  0
  -11.2512    4.9752   24.9158 C   0  0  0  0  0  0  0  0  0  0  0  0
   -6.7032   -0.8807   27.8241 C   0  0  0  0  0  0  0  0  0  0  0  0
   -7.3322   -1.9121   28.4118 C   0  0  0  0  0  0  0  0  0  0  0  0
   -6.6461   -2.9454   29.0724 C   0  0  0  0  0  0  0  0  0  0  0  0
   -5.2636   -2.8701   29.1769 C   0  0  0  0  0  0  0  0  0  0  0  0
   -4.5828   -1.7768   28.6640 C   0  0  0  0  0  0  0  0  0  0  0  0
   -5.2547   -0.7500   28.0786 C   0  0  0  0  0  0  0  0  0  0  0  0
   -8.3788    7.4269   27.3890 O   0  0  0  0  0  0  0  0  0  0  0  0
   -3.0915   -1.6375   28.8069 C   0  0  0  0  0  0  0  0  0  0  0  0
   -2.4903   -0.7068   28.0797 C   0  0  0  0  0  0  0  0  0  0  0  0
   -3.2868    0.3821   27.5001 C   0  0  0  0  0  0  0  0  0  0  0  0
   -4.5826    0.3272   27.4359 C   0  0  0  0  0  0  0  0  0  0  0  0
   -7.3990   -4.0887   29.6313 C   0  0  0  0  0  0  0  0  0  0  0  0
   -7.4161   -4.5881   30.5117 N   0  0  0  0  0  0  0  0  0  0  0  0
   -8.3842   -4.6283   28.5576 C   0  0  0  0  0  0  0  0  0  0  0  0
   -7.7396   -4.4987   31.5486 C   0  0  0  0  0  0  0  0  0  0  0  0
   -7.3939   -5.2556   32.6906 C   0  0  0  0  0  0  0  0  0  0  0  0
 11 12  1  0
  4 18  1  0
  9 24  1  0
 20 29  1  0
 29 30  1  0
 29 31  1  0
 30 32  1  0
 32 33  2  0
  9  8  1  0
 12 13  2  0
 13 14  1  0
 14 15  2  0
 15 16  1  0
 16 17  2  0
 17 12  1  0
 23 28  2  0
 28 27  1  0
 27 26  2  0
 26 25  1  0
 25 22  2  0
 18 19  2  0
 19 20  1  0
 20 21  2  0
 21 22  1  0
 22 23  1  0
 23 18  1  0
  1  2  2  0
  5 11  2  0
 11 10  1  0
 10  8  2  0
  8  1  1  0
  2  3  1  0
  3  4  2  0
  4  7  1  0
  7  6  2  0
  6  5  1  0
  5  2  1  0
M  END
$$$$
