No_9880-complexes_sdf/6BKW-FPZ/2024-09-17-14-21-01/
     RDKit          3D

 40 45  0  0  0  0  0  0  0  0999 V2000
   -7.9040    3.9820   27.1177 C   0  0  0  0  0  0  0  0  0  0  0  0
   -9.0711    4.3164   27.0630 C   0  0  0  0  0  0  0  0  0  0  0  0
   -9.8698    3.9665   25.9494 C   0  0  0  0  0  0  0  0  0  0  0  0
   -7.0332    4.5030   28.2025 C   0  0  0  0  0  0  0  0  0  0  0  0
   -9.4357    2.9501   25.1393 C   0  0  0  0  0  0  0  0  0  0  0  0
  -10.2810    2.6266   24.0411 C   0  0  1  0  0  0  0  0  0  0  0  0
   -7.6131    5.5379   28.9074 C   0  0  0  0  0  0  0  0  0  0  0  0
  -11.2591    3.4915   23.6182 C   0  0  0  0  0  0  0  0  0  0  0  0
  -11.6811    4.5571   24.4002 C   0  0  0  0  0  0  0  0  0  0  0  0
  -10.8845    4.8638   25.5292 C   0  0  0  0  0  0  0  0  0  0  0  0
   -8.9553    5.7599   27.7324 C   0  0  0  0  0  0  0  0  0  0  0  0
   -9.9157    1.4511   23.1890 C   0  0  0  0  0  0  0  0  0  0  0  0
   -8.9842    0.6039   23.6250 C   0  0  0  0  0  0  0  0  0  0  0  0
  -10.4755    1.3491   21.9084 C   0  0  0  0  0  0  0  0  0  0  0  0
   -8.6084   -0.5194   22.8248 C   0  0  0  0  0  0  0  0  0  0  0  0
  -10.0978    0.2356   21.0922 C   0  0  0  0  0  0  0  0  0  0  0  0
   -9.1977   -0.6515   21.5847 C   0  0  0  0  0  0  0  0  0  0  0  0
   -8.8304   -1.7943   20.7207 C   0  0  0  0  0  0  0  0  0  0  0  0
   -7.5818   -2.3751   20.8844 C   0  0  0  0  0  0  0  0  0  0  0  0
   -6.9159   -2.2712   22.1717 C   0  0  0  0  0  0  0  0  0  0  0  0
   -7.4082   -1.3082   23.1196 C   0  0  0  0  0  0  0  0  0  0  0  0
   -6.6203   -1.0996   24.3246 C   0  0  0  0  0  0  0  0  0  0  0  0
   -5.4776   -1.3534   24.4073 O   0  0  0  0  0  0  0  0  0  0  0  0
   -7.2163   -0.4187   25.3282 O   0  0  0  0  0  0  0  0  0  0  0  0
   -7.7141   -1.1079   26.3350 C   0  0  0  0  0  0  0  0  0  0  0  0
   -7.2652   -0.8905   27.4836 C   0  0  0  0  0  0  0  0  0  0  0  0
   -6.3406    0.1390   27.7748 C   0  0  0  0  0  0  0  0  0  0  0  0
   -5.3610    0.1854   28.8016 C   0  0  0  0  0  0  0  0  0  0  0  0
   -4.3175    1.2010   28.8002 C   0  0  0  0  0  0  0  0  0  0  0  0
   -5.2792   -0.8733   29.7272 C   0  0  0  0  0  0  0  0  0  0  0  0
   -4.2562   -0.7991   30.7546 C   0  0  0  0  0  0  0  0  0  0  0  0
   -4.3605   -1.6170   31.8475 C   0  0  0  0  0  0  0  0  0  0  0  0
   -3.4879   -1.3523   32.9251 C   0  0  0  0  0  0  0  0  0  0  0  0
   -2.5064   -0.3515   32.8409 C   0  0  0  0  0  0  0  0  0  0  0  0
   -2.5643    0.4616   31.7274 N   0  0  0  0  0  0  0  0  0  0  0  0
   -3.4027    0.3168   30.7559 C   0  0  0  0  0  0  0  0  0  0  0  0
   -3.4187    1.1999   29.7477 N   0  0  0  0  0  0  0  0  0  0  0  0
   -5.3806   -2.6170   31.9675 C   0  0  0  0  0  0  0  0  0  0  0  0
   -6.3841   -2.4986   32.8111 C   0  0  0  0  0  0  0  0  0  0  0  0
   -7.5732   -3.2352   32.8591 C   0  0  0  0  0  0  0  0  0  0  0  0
  1  2  1  0
  2  3  2  3
  1  4  1  0
  3  5  1  0
  5  6  1  0
  4  7  2  0
  6  8  1  0
  8  9  1  0
  3 10  1  0
  9 10  1  0
  2 11  1  0
  7 11  1  0
  6 12  1  6
 21 22  1  0
 22 23  2  0
 22 24  1  0
 24 25  1  0
 25 26  2  3
 26 27  1  0
 27 28  2  3
 28 29  1  0
 28 30  1  0
 30 31  1  0
 29 37  1  0
 36 37  1  0
 32 38  1  0
 38 39  1  0
 39 40  2  0
 31 32  2  0
 32 33  1  0
 33 34  2  0
 34 35  1  0
 35 36  2  0
 36 31  1  0
 12 13  2  0
 13 15  1  0
 17 16  1  0
 16 14  2  0
 14 12  1  0
 15 17  2  0
 17 18  1  0
 18 19  2  0
 19 20  1  0
 20 21  2  0
 21 15  1  0
M  END
$$$$
