No_9777-complexes_sdf/6BKW-FPZ/2024-09-17-14-21-01/
     RDKit          3D

 10 11  0  0  0  0  0  0  0  0999 V2000
   -7.7129    4.2099   27.0854 C   0  0  0  0  0  0  0  0  0  0  0  0
   -7.7814    5.1722   27.8972 C   0  0  0  0  0  0  0  0  0  0  0  0
   -8.7889    3.2468   27.2220 C   0  0  0  0  0  0  0  0  0  0  0  0
   -9.8927    3.4443   27.8449 C   0  0  0  0  0  0  0  0  0  0  0  0
  -10.8361    2.4277   28.1862 C   0  0  0  0  0  0  0  0  0  0  0  0
   -8.9982    5.6862   28.4918 C   0  0  0  0  0  0  0  0  0  0  0  0
  -10.0005    4.6811   28.6207 C   0  0  0  0  0  0  0  0  0  0  0  0
  -10.6579    1.1362   27.6977 C   0  0  0  0  0  0  0  0  0  0  0  0
   -9.4782    0.8756   26.9234 C   0  0  0  0  0  0  0  0  0  0  0  0
   -8.4133    1.8844   26.7491 C   0  0  0  0  0  0  0  0  0  0  0  0
  4  5  2  0
  5  8  1  0
  8  9  2  0
  9 10  1  0
 10  3  2  0
  1  2  2  0
  2  6  1  0
  6  7  2  0
  7  4  1  0
  4  3  1  0
  3  1  1  0
M  END
$$$$
