No_9510-complexes_sdf/6BKW-FPZ/2024-09-17-14-21-01/
     RDKit          3D

 26 28  0  0  0  0  0  0  0  0999 V2000
   -7.2496    3.8871   27.4508 C   0  0  0  0  0  0  0  0  0  0  0  0
   -7.9379    4.9063   27.8518 C   0  0  1  0  0  0  0  0  0  0  0  0
   -7.5112    6.1898   27.6280 C   0  0  0  0  0  0  0  0  0  0  0  0
   -9.3085    4.6933   28.2930 C   0  0  0  0  0  0  0  0  0  0  0  0
   -6.9422    2.7756   27.7939 C   0  0  0  0  0  0  0  0  0  0  0  0
   -6.0491    1.8084   27.3010 C   0  0  0  0  0  0  0  0  0  0  0  0
   -5.1958    1.1978   28.1044 C   0  0  0  0  0  0  0  0  0  0  0  0
   -5.4152   -0.2664   28.4208 C   0  0  0  0  0  0  0  0  0  0  0  0
   -4.8398   -0.7551   29.5414 C   0  0  0  0  0  0  0  0  0  0  0  0
   -5.2818   -1.9277   30.1424 C   0  0  0  0  0  0  0  0  0  0  0  0
   -6.3095   -2.5998   29.4753 C   0  0  0  0  0  0  0  0  0  0  0  0
   -6.9375   -2.0988   28.3694 C   0  0  0  0  0  0  0  0  0  0  0  0
   -6.5507   -0.7990   27.9226 C   0  0  0  0  0  0  0  0  0  0  0  0
   -3.6966   -0.0160   30.2249 C   0  0  0  0  0  0  0  0  0  0  0  0
   -3.1338    0.9986   29.6217 N   0  0  0  0  0  0  0  0  0  0  0  0
   -3.9074    1.6424   28.5780 C   0  0  0  0  0  0  0  0  0  0  0  0
   -2.9612   -0.6573   31.1625 N   0  0  0  0  0  0  0  0  0  0  0  0
   -1.9095   -1.4798   31.1025 C   0  0  0  0  0  0  0  0  0  0  0  0
   -3.4161   -0.2408   32.5582 C   0  0  0  0  0  0  0  0  0  0  0  0
   -8.4412    7.2544   27.1903 C   0  0  0  0  0  0  0  0  0  0  0  0
   -9.7804    3.4541   28.4261 C   0  0  0  0  0  0  0  0  0  0  0  0
  -11.2411    3.3471   28.5689 C   0  0  0  0  0  0  0  0  0  0  0  0
  -11.7493    2.1235   28.9571 C   0  0  0  0  0  0  0  0  0  0  0  0
  -11.1037    0.9713   28.4478 C   0  0  0  0  0  0  0  0  0  0  0  0
   -9.7489    1.0866   27.9191 C   0  0  0  0  0  0  0  0  0  0  0  0
   -9.1372    2.3045   27.8912 C   0  0  0  0  0  0  0  0  0  0  0  0
  1  2  1  0
  2  3  1  0
  2  4  1  6
  1  5  2  3
  5  6  1  0
  6  7  1  0
 14 17  1  0
 17 18  1  0
 17 19  1  0
  3 20  2  0
  4 21  1  0
  7  8  1  0
  9 14  1  0
 14 15  2  0
 15 16  1  0
 16  7  2  0
  8  9  1  0
  9 10  2  0
 10 11  1  0
 11 12  2  0
 12 13  1  0
 13  8  2  0
 21 22  2  0
 22 23  1  0
 23 24  2  0
 24 25  1  0
 25 26  2  0
 26 21  1  0
M  END
$$$$
