No_9015-complexes_sdf/6BKW-FPZ/2024-09-17-14-21-01/
     RDKit          3D

  7  7  0  0  0  0  0  0  0  0999 V2000
   -7.2496    3.8871   27.4508 C   0  0  0  0  0  0  0  0  0  0  0  0
   -7.6161    2.7143   27.1523 C   0  0  0  0  0  0  0  0  0  0  0  0
   -8.6212    2.2239   26.4073 C   0  0  0  0  0  0  0  0  0  0  0  0
   -6.2236    4.3429   28.3592 C   0  0  0  0  0  0  0  0  0  0  0  0
   -9.5004    3.2036   25.9134 C   0  0  0  0  0  0  0  0  0  0  0  0
   -9.2386    4.5881   26.2125 C   0  0  0  0  0  0  0  0  0  0  0  0
   -8.1605    4.9001   27.0001 C   0  0  0  0  0  0  0  0  0  0  0  0
  1  4  1  0
  1  2  2  0
  2  3  1  0
  3  5  2  0
  5  6  1  0
  6  7  2  0
  7  1  1  0
M  END
$$$$
