No_9882-complexes_sdf/6BKW-FPZ/2024-09-17-14-21-01/
     RDKit          3D

 37 41  0  0  0  0  0  0  0  0999 V2000
   -7.9040    3.9820   27.1177 C   0  0  0  0  0  0  0  0  0  0  0  0
   -7.8663    4.8694   27.9238 C   0  0  0  0  0  0  0  0  0  0  0  0
   -9.0501    3.8017   26.2617 C   0  0  0  0  0  0  0  0  0  0  0  0
  -10.0189    4.7608   26.3707 C   0  0  0  0  0  0  0  0  0  0  0  0
   -8.6770    5.9780   27.9222 C   0  0  0  0  0  0  0  0  0  0  0  0
   -9.8040    5.8752   27.0958 C   0  0  0  0  0  0  0  0  0  0  0  0
   -9.1317    2.6414   25.4147 C   0  0  2  0  0  0  0  0  0  0  0  0
  -10.1646    2.5871   24.1334 Cl  0  0  0  0  0  0  0  0  0  0  0  0
   -8.3890    1.4865   25.7703 C   0  0  0  0  0  0  0  0  0  0  0  0
   -8.8718    0.4789   26.0448 C   0  0  0  0  0  0  0  0  0  0  0  0
   -8.6020   -0.4551   26.5059 C   0  0  0  0  0  0  0  0  0  0  0  0
   -9.3929   -1.6565   26.8656 C   0  0  0  0  0  0  0  0  0  0  0  0
  -10.7359   -1.5120   26.5790 C   0  0  0  0  0  0  0  0  0  0  0  0
  -11.2004   -0.3783   26.0701 C   0  0  0  0  0  0  0  0  0  0  0  0
  -10.4332    0.6468   25.8448 C   0  0  0  0  0  0  0  0  0  0  0  0
   -7.0551   -0.7405   26.9149 C   0  0  0  0  0  0  0  0  0  0  0  0
   -6.1471   -1.0412   26.0241 C   0  0  0  0  0  0  0  0  0  0  0  0
   -4.7648   -1.1025   26.3052 C   0  0  0  0  0  0  0  0  0  0  0  0
   -4.3509   -0.4632   27.0799 C   0  0  0  0  0  0  0  0  0  0  0  0
   -2.9033   -0.4110   27.5165 C   0  0  0  0  0  0  0  0  0  0  0  0
   -1.9988   -1.0307   26.7417 C   0  0  0  0  0  0  0  0  0  0  0  0
   -2.4749   -1.7182   25.6520 C   0  0  0  0  0  0  0  0  0  0  0  0
   -3.8686   -1.7456   25.3696 C   0  0  0  0  0  0  0  0  0  0  0  0
   -6.6559   -1.4688   24.7234 C   0  0  0  0  0  0  0  0  0  0  0  0
   -6.9454   -2.7567   24.4478 C   0  0  0  0  0  0  0  0  0  0  0  0
   -7.4254   -3.0745   23.1667 C   0  0  0  0  0  0  0  0  0  0  0  0
   -7.5278   -2.0942   22.2093 C   0  0  0  0  0  0  0  0  0  0  0  0
   -7.1040   -0.7784   22.4484 C   0  0  0  0  0  0  0  0  0  0  0  0
   -6.6443   -0.4350   23.7072 C   0  0  0  0  0  0  0  0  0  0  0  0
   -8.8885   -2.7814   27.4715 O   0  0  0  0  0  0  0  0  0  0  0  0
   -9.4145   -3.9533   27.3287 C   0  0  0  0  0  0  0  0  0  0  0  0
   -8.5935   -5.0371   27.3488 C   0  0  0  0  0  0  0  0  0  0  0  0
   -9.0508   -6.2810   27.0080 C   0  0  0  0  0  0  0  0  0  0  0  0
  -10.4235   -6.4129   26.7530 C   0  0  0  0  0  0  0  0  0  0  0  0
  -11.2442   -5.3181   26.7084 C   0  0  0  0  0  0  0  0  0  0  0  0
  -10.7279   -4.0828   26.9649 C   0  0  0  0  0  0  0  0  0  0  0  0
  -11.4815   -2.8171   26.6385 C   0  0  0  0  0  0  0  0  0  0  0  0
  3  7  1  0
  7  8  1  1
  7  9  1  0
 11 16  1  0
 16 17  2  3
 17 18  1  0
 17 24  1  0
 12 30  1  0
 30 31  1  0
 13 37  1  0
  9 10  1  0
 18 19  2  0
 19 20  1  0
 20 21  2  0
 21 22  1  0
 22 23  2  0
 23 18  1  0
 24 25  2  0
 25 26  1  0
 26 27  2  0
 27 28  1  0
 28 29  2  0
 29 24  1  0
 31 32  2  0
 32 33  1  0
 33 34  2  0
 34 35  1  0
 35 36  2  0
 36 31  1  0
 10 11  2  0
 11 12  1  0
 12 13  2  0
 13 14  1  0
 14 15  2  0
 15 10  1  0
  1  2  2  0
  2  5  1  0
  5  6  2  0
  6  4  1  0
  4  3  2  0
  3  1  1  0
M  END
$$$$
