No_9270-complexes_sdf/6BKW-FPZ/2024-09-17-14-21-01/
     RDKit          3D

 12 12  0  0  0  0  0  0  0  0999 V2000
   -7.9040    3.9820   27.1177 C   0  0  0  0  0  0  0  0  0  0  0  0
   -7.8663    4.8694   27.9238 C   0  0  0  0  0  0  0  0  0  0  0  0
   -9.0806    3.1428   27.1220 C   0  0  1  0  0  0  0  0  0  0  0  0
   -8.9544    1.8782   26.5467 C   0  0  0  0  0  0  0  0  0  0  0  0
   -6.7151    5.8072   27.9111 C   0  0  0  0  0  0  0  0  0  0  0  0
   -7.9998    1.0534   27.0438 C   0  0  0  0  0  0  0  0  0  0  0  0
   -7.8789   -0.2478   26.5614 C   0  0  0  0  0  0  0  0  0  0  0  0
   -8.6291   -0.5958   25.4932 C   0  0  0  0  0  0  0  0  0  0  0  0
   -9.6733    1.2494   25.6295 C   0  0  0  0  0  0  0  0  0  0  0  0
   -9.5842    0.1265   25.0447 C   0  0  0  0  0  0  0  0  0  0  0  0
  -10.2701    3.5814   27.7762 C   0  0  0  0  0  0  0  0  0  0  0  0
  -10.8566    4.8418   27.5218 C   0  0  0  0  0  0  0  0  0  0  0  0
  1  2  1  0
  3  1  1  1
  3  4  1  0
  2  5  1  0
  3 11  1  0
 11 12  1  0
  4  6  2  0
  6  7  1  0
  7  8  2  0
  8 10  1  0
 10  9  2  0
  9  4  1  0
M  END
$$$$
