No_9845-complexes_sdf/6BKW-FPZ/2024-09-17-14-21-01/
     RDKit          3D

 14 15  0  0  0  0  0  0  0  0999 V2000
   -7.7129    4.2099   27.0854 C   0  0  0  0  0  0  0  0  0  0  0  0
   -8.9133    4.4736   27.0998 C   0  0  0  0  0  0  0  0  0  0  0  0
   -9.7135    3.9633   26.0300 C   0  0  0  0  0  0  0  0  0  0  0  0
   -7.2585    2.8371   26.9278 C   0  0  0  0  0  0  0  0  0  0  0  0
   -9.4798    2.6045   25.7571 C   0  0  0  0  0  0  0  0  0  0  0  0
   -6.1287    2.2488   27.4739 C   0  0  0  0  0  0  0  0  0  0  0  0
   -8.2254    2.0254   26.2207 C   0  0  0  0  0  0  0  0  0  0  0  0
   -5.2171    3.0588   28.2044 C   0  0  0  0  0  0  0  0  0  0  0  0
   -5.7736    0.8928   27.1794 C   0  0  0  0  0  0  0  0  0  0  0  0
   -4.6803    0.3117   27.8273 C   0  0  0  0  0  0  0  0  0  0  0  0
   -4.3391   -0.9359   27.5406 C   0  0  0  0  0  0  0  0  0  0  0  0
   -5.1573   -1.6374   26.6198 C   0  0  0  0  0  0  0  0  0  0  0  0
   -6.2402   -1.0662   26.0392 C   0  0  0  0  0  0  0  0  0  0  0  0
   -6.5401    0.2121   26.3255 C   0  0  0  0  0  0  0  0  0  0  0  0
  4  6  1  0
  6  8  2  0
  6  9  1  0
  9 10  2  0
 10 11  1  0
 11 12  2  0
 12 13  1  0
 13 14  2  0
 14  9  1  0
  1  2  2  0
  2  3  1  0
  3  5  2  0
  5  7  1  0
  7  4  2  0
  4  1  1  0
M  END
$$$$
