No_9379-complexes_sdf/6BKW-FPZ/2024-09-17-14-21-01/
     RDKit          3D

 15 16  0  0  0  0  0  0  0  0999 V2000
   -7.9040    3.9820   27.1177 C   0  0  0  0  0  0  0  0  0  0  0  0
   -8.2057    2.8231   26.8733 C   0  0  0  0  0  0  0  0  0  0  0  0
   -8.7695    5.0740   26.7916 C   0  0  0  0  0  0  0  0  0  0  0  0
   -9.9618    4.7598   26.1630 C   0  0  0  0  0  0  0  0  0  0  0  0
   -9.4200    2.4524   26.2849 C   0  0  0  0  0  0  0  0  0  0  0  0
  -10.2590    3.4815   25.9250 C   0  0  0  0  0  0  0  0  0  0  0  0
   -8.3837    6.4702   27.0872 C   0  0  0  0  0  0  0  0  0  0  0  0
   -8.1625    7.4819   25.7184 I   0  0  0  0  0  0  0  0  0  0  0  0
   -6.9886    1.3792   27.3885 Br  0  0  0  0  0  0  0  0  0  0  0  0
  -11.5231    3.1479   25.2010 C   0  0  0  0  0  0  0  0  0  0  0  0
  -12.6194    2.6273   25.8828 C   0  0  0  0  0  0  0  0  0  0  0  0
  -13.7912    2.5842   25.3928 C   0  0  0  0  0  0  0  0  0  0  0  0
  -11.6075    3.3692   23.8322 C   0  0  0  0  0  0  0  0  0  0  0  0
  -12.8676    3.2822   23.2079 C   0  0  0  0  0  0  0  0  0  0  0  0
  -13.9441    2.8633   23.9713 C   0  0  0  0  0  0  0  0  0  0  0  0
  3  7  1  0
  7  8  1  0
  2  9  1  0
  6 10  1  0
  1  2  2  0
  2  5  1  0
  5  6  2  0
  6  4  1  0
  4  3  2  0
  3  1  1  0
 10 11  2  0
 11 12  1  0
 12 15  2  0
 15 14  1  0
 14 13  2  0
 13 10  1  0
M  END
$$$$
