No_9523-complexes_sdf/6BKW-FPZ/2024-09-17-14-21-01/
     RDKit          3D

 15 16  0  0  0  0  0  0  0  0999 V2000
   -7.9040    3.9820   27.1177 C   0  0  0  0  0  0  0  0  0  0  0  0
   -7.8663    4.8694   27.9238 C   0  0  0  0  0  0  0  0  0  0  0  0
   -9.0491    3.8523   26.2542 C   0  0  0  0  0  0  0  0  0  0  0  0
   -8.7661    5.9491   27.9690 C   0  0  0  0  0  0  0  0  0  0  0  0
   -9.1715    2.7136   25.4037 C   0  0  0  0  0  0  0  0  0  0  0  0
   -9.8832    5.8611   27.1405 C   0  0  0  0  0  0  0  0  0  0  0  0
  -10.0016    4.7998   26.3324 C   0  0  0  0  0  0  0  0  0  0  0  0
   -8.6322    1.5600   25.7340 N   0  0  0  0  0  0  0  0  0  0  0  0
   -9.1590    0.5856   26.0196 C   0  0  0  0  0  0  0  0  0  0  0  0
   -8.3995   -0.5685   26.5109 C   0  0  0  0  0  0  0  0  0  0  0  0
   -8.8603   -1.4784   27.2829 C   0  0  0  0  0  0  0  0  0  0  0  0
  -10.5709    0.3540   25.9091 C   0  0  0  0  0  0  0  0  0  0  0  0
  -11.1337   -0.7791   26.6122 C   0  0  0  0  0  0  0  0  0  0  0  0
  -10.3219   -1.6707   27.3003 C   0  0  0  0  0  0  0  0  0  0  0  0
   -9.6073    2.8820   24.2321 O   0  0  0  0  0  0  0  0  0  0  0  0
  3  5  1  0
  5  8  1  0
  8  9  1  0
  5 15  2  0
  1  2  2  0
  2  4  1  0
  4  6  2  0
  6  7  1  0
  7  3  2  0
  3  1  1  0
  9 10  2  0
 10 11  1  0
 11 14  2  0
 14 13  1  0
 13 12  2  0
 12  9  1  0
M  END
$$$$
