No_9508-complexes_sdf/6BKW-FPZ/2024-09-17-14-21-01/
     RDKit          3D

 31 35  0  0  0  0  0  0  0  0999 V2000
   -7.9040    3.9820   27.1177 C   0  0  0  0  0  0  0  0  0  0  0  0
   -9.0711    4.3164   27.0630 C   0  0  0  0  0  0  0  0  0  0  0  0
   -9.5294    5.4517   27.7215 C   0  0  0  0  0  0  0  0  0  0  0  0
   -6.9328    4.7309   27.8881 C   0  0  0  0  0  0  0  0  0  0  0  0
   -7.3377    5.8421   28.5537 C   0  0  0  0  0  0  0  0  0  0  0  0
   -8.6411    6.2609   28.3972 C   0  0  0  0  0  0  0  0  0  0  0  0
  -10.1663    3.5968   26.3594 C   0  0  0  0  0  0  0  0  0  0  0  0
  -10.1938    3.8160   24.9810 C   0  0  0  0  0  0  0  0  0  0  0  0
  -11.0267    3.1696   24.0834 C   0  0  0  0  0  0  0  0  0  0  0  0
  -11.9457    2.3109   24.5733 C   0  0  0  0  0  0  0  0  0  0  0  0
  -11.0519    2.7279   26.8180 C   0  0  0  0  0  0  0  0  0  0  0  0
  -11.9890    2.0495   26.0096 C   0  0  0  0  0  0  0  0  0  0  0  0
  -11.0671    2.4480   28.2943 C   0  0  0  0  0  0  0  0  0  0  0  0
  -12.2808    2.5919   28.9799 C   0  0  0  0  0  0  0  0  0  0  0  0
  -12.5783    3.9315   29.3194 C   0  0  0  0  0  0  0  0  0  0  0  0
  -13.0738    1.4912   29.2431 C   0  0  0  0  0  0  0  0  0  0  0  0
  -14.0968    1.6037   30.1815 C   0  0  0  0  0  0  0  0  0  0  0  0
  -13.7479    4.0545   30.2357 C   0  0  0  0  0  0  0  0  0  0  0  0
  -14.4580    2.9277   30.6170 C   0  0  0  0  0  0  0  0  0  0  0  0
  -10.9176    3.4820   22.6557 C   0  0  0  0  0  0  0  0  0  0  0  0
  -11.0370    4.7715   22.2164 C   0  0  0  0  0  0  0  0  0  0  0  0
   -9.8428    2.8700   21.9258 C   0  0  0  0  0  0  0  0  0  0  0  0
   -5.6735    4.2250   28.0539 O   0  0  0  0  0  0  0  0  0  0  0  0
  -12.6469    0.1707   28.8908 C   0  0  0  0  0  0  0  0  0  0  0  0
  -12.9988   -0.8693   29.4875 C   0  0  0  0  0  0  0  0  0  0  0  0
  -12.6010   -2.1229   29.0066 C   0  0  0  0  0  0  0  0  0  0  0  0
  -11.7655   -2.2075   27.9150 C   0  0  0  0  0  0  0  0  0  0  0  0
  -11.3333   -1.0881   27.2716 C   0  0  0  0  0  0  0  0  0  0  0  0
  -11.7397    0.1133   27.7841 C   0  0  0  0  0  0  0  0  0  0  0  0
  -12.2735    1.1594   26.6927 C   0  0  2  0  0  0  0  0  0  0  0  0
  -13.6815    0.6447   26.1994 C   0  0  0  0  0  0  0  0  0  0  0  0
  2  7  1  0
 11 13  1  0
 13 14  1  0
  9 20  1  0
 20 21  1  0
 20 22  1  0
  4 23  1  0
 16 24  1  0
 12 30  1  0
 29 30  1  0
 30 31  1  6
  7  8  2  0
  8  9  1  0
  9 10  2  0
 10 12  1  0
 12 11  2  0
 11  7  1  0
 14 15  2  0
 15 18  1  0
 18 19  2  0
 19 17  1  0
 17 16  2  0
 16 14  1  0
 24 25  2  0
 25 26  1  0
 26 27  2  0
 27 28  1  0
 28 29  2  0
 29 24  1  0
  1  2  2  0
  2  3  1  0
  3  6  2  0
  6  5  1  0
  5  4  2  0
  4  1  1  0
M  END
$$$$
