No_9185-complexes_sdf/6BKW-FPZ/2024-09-17-14-21-01/
     RDKit          3D

 17 17  0  0  0  0  0  0  0  0999 V2000
   -7.9040    3.9820   27.1177 C   0  0  0  0  0  0  0  0  0  0  0  0
   -8.2057    2.8231   26.8733 C   0  0  0  0  0  0  0  0  0  0  0  0
   -7.4766    1.7477   27.4593 C   0  0  0  0  0  0  0  0  0  0  0  0
   -6.7221    4.3631   27.8544 C   0  0  0  0  0  0  0  0  0  0  0  0
   -6.1698    2.0708   27.9540 C   0  0  0  0  0  0  0  0  0  0  0  0
   -5.8496    3.3886   28.1848 C   0  0  0  0  0  0  0  0  0  0  0  0
   -8.7560    5.1534   26.7276 C   0  0  1  0  0  0  0  0  0  0  0  0
   -8.8052    6.3431   27.4585 C   0  0  0  0  0  0  0  0  0  0  0  0
   -9.4906    5.0081   25.4959 C   0  0  0  0  0  0  0  0  0  0  0  0
   -5.1413    1.0630   28.4492 C   0  0  0  0  0  0  0  0  0  0  0  0
   -5.5530   -0.1068   28.7091 O   0  0  0  0  0  0  0  0  0  0  0  0
   -3.9339    1.4007   28.6337 O   0  0  0  0  0  0  0  0  0  0  0  0
  -10.4130    4.1939   25.3719 N   0  0  0  0  0  0  0  0  0  0  0  0
  -11.0131    4.0092   24.1475 C   0  0  0  0  0  0  0  0  0  0  0  0
  -12.0807    3.2530   23.9646 C   0  0  0  0  0  0  0  0  0  0  0  0
  -12.2340    2.5280   25.0358 C   0  0  0  0  0  0  0  0  0  0  0  0
  -11.8217    2.5646   26.2672 C   0  0  0  0  0  0  0  0  0  0  0  0
  1  7  1  0
  7  8  1  6
  7  9  1  0
  5 10  1  0
 10 11  2  0
 10 12  1  0
  9 13  2  3
 13 14  1  0
 14 15  2  3
 15 16  1  0
 16 17  2  0
  1  2  2  0
  2  3  1  0
  3  5  2  0
  5  6  1  0
  6  4  2  0
  4  1  1  0
M  END
$$$$
