No_9792-complexes_sdf/6BKW-FPZ/2024-09-17-14-21-01/
     RDKit          3D

 17 18  0  0  0  0  0  0  0  0999 V2000
   -7.9040    3.9820   27.1177 C   0  0  0  0  0  0  0  0  0  0  0  0
   -9.0711    4.3164   27.0630 C   0  0  0  0  0  0  0  0  0  0  0  0
   -9.9692    3.7224   26.1073 C   0  0  0  0  0  0  0  0  0  0  0  0
   -7.4776    2.6994   26.6283 C   0  0  0  0  0  0  0  0  0  0  0  0
   -8.4406    1.9440   25.9776 C   0  0  0  0  0  0  0  0  0  0  0  0
   -9.6379    2.5001   25.6881 C   0  0  0  0  0  0  0  0  0  0  0  0
   -7.0137    4.6011   27.9177 F   0  0  0  0  0  0  0  0  0  0  0  0
  -10.6139    1.7222   24.8408 C   0  0  1  0  0  0  0  0  0  0  0  0
  -10.4229    1.7527   23.5387 C   0  0  0  0  0  0  0  0  0  0  0  0
   -9.3117    2.5467   22.9397 C   0  0  0  0  0  0  0  0  0  0  0  0
   -9.2135    2.6137   21.5259 C   0  0  0  0  0  0  0  0  0  0  0  0
  -10.1390    1.9352   20.7317 C   0  0  0  0  0  0  0  0  0  0  0  0
  -11.1239    1.2616   21.3486 C   0  0  0  0  0  0  0  0  0  0  0  0
  -11.2904    1.1311   22.6832 C   0  0  0  0  0  0  0  0  0  0  0  0
  -10.7959    0.2669   25.3607 C   0  0  0  0  0  0  0  0  0  0  0  0
   -9.9798   -0.6996   25.4528 C   0  0  0  0  0  0  0  0  0  0  0  0
  -10.2952   -1.9459   25.9335 C   0  0  0  0  0  0  0  0  0  0  0  0
  1  7  1  0
  8  6  1  1
  8 15  1  0
 15 16  2  3
 16 17  1  0
  8  9  1  0
  1  2  2  0
  2  3  1  0
  3  6  2  0
  6  5  1  0
  5  4  2  0
  4  1  1  0
  9 10  2  0
 10 11  1  0
 11 12  2  0
 12 13  1  0
 13 14  2  0
 14  9  1  0
M  END
$$$$
