No_9987-complexes_sdf/6BKW-FPZ/2024-09-17-14-21-01/
     RDKit          3D

 39 43  0  0  0  0  0  0  0  0999 V2000
   -7.9040    3.9820   27.1177 C   0  0  0  0  0  0  0  0  0  0  0  0
   -7.8663    4.8694   27.9238 C   0  0  0  0  0  0  0  0  0  0  0  0
   -9.0491    3.8523   26.2542 C   0  0  0  0  0  0  0  0  0  0  0  0
   -8.7661    5.9491   27.9690 C   0  0  0  0  0  0  0  0  0  0  0  0
   -9.9279    4.8544   26.1938 C   0  0  0  0  0  0  0  0  0  0  0  0
   -9.8044    5.9413   27.0782 C   0  0  0  0  0  0  0  0  0  0  0  0
   -7.0266    2.8847   27.2012 N   0  0  0  0  0  0  0  0  0  0  0  0
   -7.2828    1.5903   26.8204 C   0  0  0  0  0  0  0  0  0  0  0  0
   -6.3013    0.6425   27.2033 C   0  0  0  0  0  0  0  0  0  0  0  0
   -5.2116    1.2850   27.8527 C   0  0  0  0  0  0  0  0  0  0  0  0
   -5.7240    2.8405   27.8029 C   0  0  0  0  0  0  0  0  0  0  0  0
   -4.0103    0.9898   28.3536 C   0  0  0  0  0  0  0  0  0  0  0  0
   -3.8896   -0.3366   28.8189 C   0  0  1  0  0  0  0  0  0  0  0  0
   -4.5262   -0.8447   29.8480 C   0  0  0  0  0  0  0  0  0  0  0  0
   -5.3828    0.0237   30.6687 C   0  0  0  0  0  0  0  0  0  0  0  0
   -5.8589   -0.5980   31.8921 C   0  0  0  0  0  0  0  0  0  0  0  0
   -5.5428   -1.9309   32.2552 C   0  0  0  0  0  0  0  0  0  0  0  0
   -4.8019   -2.7101   31.4434 C   0  0  0  0  0  0  0  0  0  0  0  0
   -4.2318   -2.1684   30.2992 C   0  0  0  0  0  0  0  0  0  0  0  0
   -3.8271   -1.3878   27.7117 C   0  0  0  0  0  0  0  0  0  0  0  0
   -2.4038   -1.7308   27.5422 C   0  0  0  0  0  0  0  0  0  0  0  0
   -2.1302   -2.6229   26.4186 C   0  0  0  0  0  0  0  0  0  0  0  0
   -0.8111   -2.8677   26.0844 C   0  0  0  0  0  0  0  0  0  0  0  0
   -0.5166   -3.6608   24.9101 C   0  0  0  0  0  0  0  0  0  0  0  0
   -1.5720   -4.1763   24.1784 C   0  0  0  0  0  0  0  0  0  0  0  0
   -2.8536   -3.9617   24.5694 C   0  0  0  0  0  0  0  0  0  0  0  0
   -3.1265   -3.1596   25.6297 C   0  0  0  0  0  0  0  0  0  0  0  0
   -1.3528   -1.3492   28.4070 C   0  0  0  0  0  0  0  0  0  0  0  0
   -6.1332   -2.4070   33.5671 C   0  0  0  0  0  0  0  0  0  0  0  0
   -5.6794   -1.9646   34.7097 N   0  0  0  0  0  0  0  0  0  0  0  0
   -4.7647   -1.0952   34.8703 C   0  0  0  0  0  0  0  0  0  0  0  0
   -4.3634   -0.7485   36.2893 C   0  0  1  0  0  0  0  0  0  0  0  0
   -6.2664   -2.3982   35.9545 C   0  0  0  0  0  0  0  0  0  0  0  0
   -5.7080   -2.1495   37.0335 C   0  0  0  0  0  0  0  0  0  0  0  0
   -4.7983   -1.2073   37.3214 C   0  0  0  0  0  0  0  0  0  0  0  0
   -7.1462   -3.1257   33.4265 O   0  0  0  0  0  0  0  0  0  0  0  0
   -3.1501    0.3210   36.2994 C   0  0  0  0  0  0  0  0  0  0  0  0
   -2.1739    0.1056   35.6040 O   0  0  0  0  0  0  0  0  0  0  0  0
   -3.2641    1.3084   37.1382 O   0  0  0  0  0  0  0  0  0  0  0  0
  1  7  1  0
  7  8  1  0
  8  9  2  0
  9 10  1  0
  7 11  1  0
 10 11  2  0
 10 12  1  0
 13 12  1  6
 13 20  1  0
 20 21  2  3
 21 22  1  0
 21 28  1  0
 17 29  1  0
 29 30  1  0
 30 31  1  0
 30 33  1  0
 32 35  1  0
 34 35  1  0
 29 36  2  0
 32 37  1  6
 37 38  2  0
 37 39  1  0
 13 14  1  0
 31 32  1  0
 34 33  1  0
 14 15  2  0
 15 16  1  0
 16 17  2  0
 17 18  1  0
 18 19  2  0
 19 14  1  0
 22 23  2  0
 23 24  1  0
 24 25  2  0
 25 26  1  0
 26 27  2  0
 27 22  1  0
  1  2  2  0
  2  4  1  0
  4  6  2  0
  6  5  1  0
  5  3  2  0
  3  1  1  0
M  END
$$$$
