No_9428-complexes_sdf/6BKW-FPZ/2024-09-17-14-21-01/
     RDKit          3D

 33 36  0  0  0  0  0  0  0  0999 V2000
   -7.2496    3.8871   27.4508 C   0  0  0  0  0  0  0  0  0  0  0  0
   -7.6161    2.7143   27.1523 C   0  0  0  0  0  0  0  0  0  0  0  0
   -8.8302    2.4659   26.5056 C   0  0  0  0  0  0  0  0  0  0  0  0
   -8.1584    5.0090   27.3234 C   0  0  0  0  0  0  0  0  0  0  0  0
   -9.3788    4.7965   26.7695 C   0  0  0  0  0  0  0  0  0  0  0  0
   -9.7028    3.5649   26.3276 C   0  0  0  0  0  0  0  0  0  0  0  0
   -6.7190    1.5585   27.3667 C   0  0  0  0  0  0  0  0  0  0  0  0
   -5.4774    1.7392   28.0696 C   0  0  0  0  0  0  0  0  0  0  0  0
   -4.6023    0.6521   28.2584 C   0  0  0  0  0  0  0  0  0  0  0  0
   -4.8589   -0.3255   28.1456 C   0  0  0  0  0  0  0  0  0  0  0  0
   -7.0365    0.2354   27.2172 C   0  0  0  0  0  0  0  0  0  0  0  0
   -6.2663   -0.6679   27.5353 C   0  0  0  0  0  0  0  0  0  0  0  0
   -7.7038    6.3703   27.7723 C   0  0  0  0  0  0  0  0  0  0  0  0
   -8.4338    7.4055   27.2618 N   0  0  0  0  0  0  0  0  0  0  0  0
   -4.0380   -1.6050   28.5104 C   0  0  1  0  0  0  0  0  0  0  0  0
   -2.9982   -1.6810   28.0536 C   0  0  0  0  0  0  0  0  0  0  0  0
   -4.1249   -1.9352   29.9526 C   0  0  0  0  0  0  0  0  0  0  0  0
   -3.9033   -3.1790   30.2219 C   0  0  1  0  0  0  0  0  0  0  0  0
   -2.5817   -3.6235   29.8759 C   0  0  0  0  0  0  0  0  0  0  0  0
   -1.8740   -2.8446   29.2803 C   0  0  0  0  0  0  0  0  0  0  0  0
   -2.0121   -2.0904   28.3831 C   0  0  0  0  0  0  0  0  0  0  0  0
   -4.6530   -3.8300   31.3188 C   0  0  1  0  0  0  0  0  0  0  0  0
   -5.9523   -3.6206   31.2707 C   0  0  0  0  0  0  0  0  0  0  0  0
   -6.6480   -2.8483   30.7579 C   0  0  0  0  0  0  0  0  0  0  0  0
   -8.1177   -2.6368   30.8385 C   0  0  0  0  0  0  0  0  0  0  0  0
   -8.7189   -3.2622   31.9137 C   0  0  0  0  0  0  0  0  0  0  0  0
   -8.0002   -4.1150   32.7267 C   0  0  0  0  0  0  0  0  0  0  0  0
   -6.6785   -4.2913   32.5260 C   0  0  0  0  0  0  0  0  0  0  0  0
   -4.0193   -4.8579   32.0967 C   0  0  0  0  0  0  0  0  0  0  0  0
  -10.9948    3.3685   25.6292 C   0  0  0  0  0  0  0  0  0  0  0  0
  -11.2598    2.2696   25.0319 N   0  0  0  0  0  0  0  0  0  0  0  0
  -11.3440    2.1327   23.8647 C   0  0  0  0  0  0  0  0  0  0  0  0
  -11.3796    0.8387   23.2270 C   0  0  0  0  0  0  0  0  0  0  0  0
  2  7  1  0
  4 13  1  0
 13 14  1  0
 15 10  1  1
 15 16  1  0
 15 17  1  0
 18 17  1  1
 18 19  1  0
 19 20  2  0
 16 21  2  0
 20 21  1  0
 18 22  1  0
 22 23  1  0
 22 29  1  6
  6 30  1  0
 30 31  1  0
 31 32  1  0
 32 33  2  0
  7  8  2  0
  8  9  1  0
  9 10  2  0
 10 12  1  0
 12 11  2  0
 11  7  1  0
 23 24  2  0
 24 25  1  0
 25 26  2  0
 26 27  1  0
 27 28  2  0
 28 23  1  0
  1  2  2  0
  2  3  1  0
  3  6  2  0
  6  5  1  0
  5  4  2  0
  4  1  1  0
M  END
$$$$
