No_9763-complexes_sdf/6BKW-FPZ/2024-09-17-14-21-01/
     RDKit          3D

 13 13  0  0  0  0  0  0  0  0999 V2000
   -7.7129    4.2099   27.0854 C   0  0  0  0  0  0  0  0  0  0  0  0
   -7.7814    5.1722   27.8972 C   0  0  0  0  0  0  0  0  0  0  0  0
   -7.2983    2.9533   27.5684 C   0  0  0  0  0  0  0  0  0  0  0  0
   -7.6908    1.8111   26.9553 C   0  0  0  0  0  0  0  0  0  0  0  0
   -8.6533    1.9165   25.9430 C   0  0  0  0  0  0  0  0  0  0  0  0
   -9.2376    3.0581   25.6387 C   0  0  0  0  0  0  0  0  0  0  0  0
   -8.7036    4.1866   26.1364 C   0  0  2  0  0  0  0  0  0  0  0  0
   -9.4621    5.2931   25.7872 N   0  0  0  0  0  0  0  0  0  0  0  0
   -8.0356    4.6358   25.3880 F   0  0  0  0  0  0  0  0  0  0  0  0
   -6.9321    4.8125   26.8791 F   0  0  0  0  0  0  0  0  0  0  0  0
   -8.3081    6.3601   27.7369 O   0  0  0  0  0  0  0  0  0  0  0  0
   -9.5535    6.1646   26.5202 C   0  0  0  0  0  0  0  0  0  0  0  0
   -8.3692    4.8754   28.9988 F   0  0  0  0  0  0  0  0  0  0  0  0
  1  2  2  3
  1  3  1  0
  3  4  1  0
  4  5  1  0
  5  6  1  0
  6  7  1  0
  7  8  1  0
  7  9  1  6
  1 10  1  0
  2 11  1  0
  8 12  1  0
 11 12  1  0
  2 13  1  0
M  END
$$$$
