No_9662-complexes_sdf/6BKW-FPZ/2024-09-17-14-21-01/
     RDKit          3D

 12 12  0  0  0  0  0  0  0  0999 V2000
   -7.2496    3.8871   27.4508 C   0  0  0  0  0  0  0  0  0  0  0  0
   -8.5096    4.0291   27.2770 C   0  0  0  0  0  0  0  0  0  0  0  0
   -9.2677    5.1714   27.5773 C   0  0  0  0  0  0  0  0  0  0  0  0
   -9.2765    2.8248   26.8371 C   0  0  0  0  0  0  0  0  0  0  0  0
  -10.4623    3.0171   26.3237 C   0  0  0  0  0  0  0  0  0  0  0  0
  -10.8972    2.6250   25.3350 C   0  0  0  0  0  0  0  0  0  0  0  0
  -12.2133    2.9588   24.7026 C   0  0  0  0  0  0  0  0  0  0  0  0
  -10.5843    5.3403   27.2292 C   0  0  0  0  0  0  0  0  0  0  0  0
  -11.1765    4.3354   26.5199 C   0  0  0  0  0  0  0  0  0  0  0  0
   -6.5439    2.6998   27.4910 N   0  0  0  0  0  0  0  0  0  0  0  0
   -5.2015    2.7500   27.9469 C   0  0  0  0  0  0  0  0  0  0  0  0
  -12.6178    2.3173   23.5203 C   0  0  0  0  0  0  0  0  0  0  0  0
  1  2  1  0
  6  7  1  0
  1 10  1  0
 10 11  1  0
  7 12  2  0
  6  5  1  0
  2  3  2  0
  3  8  1  0
  8  9  2  0
  9  5  1  0
  5  4  2  0
  4  2  1  0
M  END
$$$$
