No_9589-complexes_sdf/6BKW-FPZ/2024-09-17-14-21-01/
     RDKit          3D

 29 31  0  0  0  0  0  0  0  0999 V2000
   -7.2496    3.8871   27.4508 C   0  0  0  0  0  0  0  0  0  0  0  0
   -8.5096    4.0291   27.2770 C   0  0  0  0  0  0  0  0  0  0  0  0
   -9.3451    2.8786   26.9046 C   0  0  0  0  0  0  0  0  0  0  0  0
   -8.7138    1.7135   26.7541 C   0  0  0  0  0  0  0  0  0  0  0  0
   -6.6024    2.6286   27.4581 C   0  0  0  0  0  0  0  0  0  0  0  0
   -7.3557    1.5598   27.1381 C   0  0  0  0  0  0  0  0  0  0  0  0
   -9.1549    5.3689   27.3374 C   0  0  0  0  0  0  0  0  0  0  0  0
   -8.3270    6.5188   27.1630 C   0  0  0  0  0  0  0  0  0  0  0  0
   -6.6940    0.2513   27.0445 C   0  0  0  0  0  0  0  0  0  0  0  0
   -6.5084   -0.2678   26.0792 O   0  0  0  0  0  0  0  0  0  0  0  0
   -6.5134   -0.3462   28.3043 O   0  0  0  0  0  0  0  0  0  0  0  0
   -8.7331    7.6568   26.3564 C   0  0  0  0  0  0  0  0  0  0  0  0
   -7.1030    6.6257   27.8832 C   0  0  0  0  0  0  0  0  0  0  0  0
   -5.2693   -0.5277   28.7904 C   0  0  0  0  0  0  0  0  0  0  0  0
   -4.2987    0.3421   28.5293 C   0  0  0  0  0  0  0  0  0  0  0  0
   -4.9226   -1.8056   29.3110 C   0  0  0  0  0  0  0  0  0  0  0  0
   -3.6874   -2.0307   29.8774 C   0  0  0  0  0  0  0  0  0  0  0  0
   -2.9523    0.1451   29.1471 C   0  0  0  0  0  0  0  0  0  0  0  0
   -2.6795   -1.0869   29.7304 C   0  0  0  0  0  0  0  0  0  0  0  0
   -1.3253   -1.2922   30.2457 C   0  0  0  0  0  0  0  0  0  0  0  0
   -1.1530   -1.5144   31.3954 O   0  0  0  0  0  0  0  0  0  0  0  0
   -0.3431   -1.3160   29.3464 O   0  0  0  0  0  0  0  0  0  0  0  0
  -10.7285    3.0280   26.5885 C   0  0  0  0  0  0  0  0  0  0  0  0
  -11.6085    3.1525   27.6530 C   0  0  0  0  0  0  0  0  0  0  0  0
  -12.4847    2.5359   27.8593 C   0  0  0  0  0  0  0  0  0  0  0  0
  -13.3510    2.5140   29.1504 C   0  0  0  0  0  0  0  0  0  0  0  0
  -12.9884    3.5003   30.0544 C   0  0  0  0  0  0  0  0  0  0  0  0
  -11.8380    4.2581   29.8119 C   0  0  0  0  0  0  0  0  0  0  0  0
  -11.1549    4.1085   28.7283 C   0  0  0  0  0  0  0  0  0  0  0  0
  2  7  1  0
  7  8  1  0
  6  9  1  0
  9 10  2  0
  9 11  1  0
  8 12  1  0
  8 13  1  0
 11 14  1  0
 19 20  1  0
 20 21  2  0
 20 22  1  0
  3 23  1  0
 23 24  1  0
 14 15  2  0
 15 18  1  0
 18 19  2  0
 19 17  1  0
 17 16  2  0
 16 14  1  0
 24 25  2  0
 25 26  1  0
 26 27  2  0
 27 28  1  0
 28 29  2  0
 29 24  1  0
  1  2  2  0
  2  3  1  0
  3  4  2  0
  4  6  1  0
  6  5  2  0
  5  1  1  0
M  END
$$$$
