No_9244-complexes_sdf/6BKW-FPZ/2024-09-17-14-21-01/
     RDKit          3D

 17 18  0  0  0  0  0  0  0  0999 V2000
   -7.7129    4.2099   27.0854 C   0  0  0  0  0  0  0  0  0  0  0  0
   -8.2112    3.0637   26.9225 C   0  0  0  0  0  0  0  0  0  0  0  0
   -7.5138    1.9223   27.4249 C   0  0  0  0  0  0  0  0  0  0  0  0
   -8.5309    5.4147   26.8151 C   0  0  0  0  0  0  0  0  0  0  0  0
   -9.6817    5.2393   26.1100 C   0  0  0  0  0  0  0  0  0  0  0  0
  -10.1032    3.9957   25.8534 C   0  0  0  0  0  0  0  0  0  0  0  0
   -9.4035    2.8430   26.2573 C   0  0  0  0  0  0  0  0  0  0  0  0
   -7.9563    0.5637   27.2536 C   0  0  0  0  0  0  0  0  0  0  0  0
   -9.2570    0.5009   26.6165 C   0  0  0  0  0  0  0  0  0  0  0  0
   -9.9537    1.5657   26.1011 C   0  0  0  0  0  0  0  0  0  0  0  0
   -7.9633    6.7757   27.0738 C   0  0  0  0  0  0  0  0  0  0  0  0
   -7.0187    6.8276   27.9026 O   0  0  0  0  0  0  0  0  0  0  0  0
   -8.6436    7.8494   26.8781 O   0  0  0  0  0  0  0  0  0  0  0  0
   -7.1615   -0.7212   27.9104 Cl  0  0  0  0  0  0  0  0  0  0  0  0
  -11.3550    3.8657   25.0641 C   0  0  0  0  0  0  0  0  0  0  0  0
  -11.5484    3.7804   23.8871 C   0  0  0  0  0  0  0  0  0  0  0  0
  -12.7583    3.6779   23.1847 C   0  0  0  0  0  0  0  0  0  0  0  0
  4 11  1  0
 11 12  1  0
 11 13  2  0
  8 14  1  0
  6 15  1  0
 15 16  2  3
 16 17  1  0
  1  2  2  0
  7  6  2  0
  6  5  1  0
  5  4  2  0
  4  1  1  0
  2  3  1  0
  3  8  2  0
  8  9  1  0
  9 10  2  0
 10  7  1  0
  7  2  1  0
M  END
$$$$
