No_9759-complexes_sdf/6BKW-FPZ/2024-09-17-14-21-01/
     RDKit          3D

 19 20  0  0  0  0  0  0  0  0999 V2000
   -7.9040    3.9820   27.1177 C   0  0  0  0  0  0  0  0  0  0  0  0
   -7.8663    4.8694   27.9238 C   0  0  0  0  0  0  0  0  0  0  0  0
   -9.0491    3.8523   26.2542 C   0  0  0  0  0  0  0  0  0  0  0  0
   -9.9827    3.2456   26.6451 C   0  0  1  0  0  0  0  0  0  0  0  0
  -10.7367    3.8670   27.7658 C   0  0  2  0  0  0  0  0  0  0  0  0
   -8.4576    6.0069   27.8730 C   0  0  0  0  0  0  0  0  0  0  0  0
  -10.3340    5.1562   28.2225 C   0  0  0  0  0  0  0  0  0  0  0  0
   -9.2310    5.9070   28.5755 C   0  0  0  0  0  0  0  0  0  0  0  0
  -10.5745    2.0900   26.0166 C   0  0  0  0  0  0  0  0  0  0  0  0
  -10.1430    0.9775   26.0030 C   0  0  0  0  0  0  0  0  0  0  0  0
  -10.5644   -0.1316   25.3542 C   0  0  0  0  0  0  0  0  0  0  0  0
  -11.7159    2.3012   25.1511 C   0  0  0  0  0  0  0  0  0  0  0  0
  -12.2928    1.2782   24.4485 C   0  0  0  0  0  0  0  0  0  0  0  0
  -11.6919    0.0417   24.5655 C   0  0  0  0  0  0  0  0  0  0  0  0
  -11.5986    3.0297   28.5458 C   0  0  0  0  0  0  0  0  0  0  0  0
   -6.6658    4.9230   28.7091 O   0  0  0  0  0  0  0  0  0  0  0  0
  -12.3022   -1.0859   23.8248 C   0  0  0  0  0  0  0  0  0  0  0  0
  -12.5491   -1.1548   22.7694 C   0  0  0  0  0  0  0  0  0  0  0  0
  -13.1664   -2.3134   22.0670 C   0  0  0  0  0  0  0  0  0  0  0  0
  1  2  1  0
  1  3  1  0
  3  4  1  0
  4  5  1  0
  2  6  1  0
  5  7  1  0
  6  8  1  0
  7  8  1  0
  4  9  1  6
  5 15  1  1
  2 16  2  0
 14 17  1  0
 17 18  2  3
 18 19  1  0
  9 10  2  0
 10 11  1  0
 11 14  2  0
 14 13  1  0
 13 12  2  0
 12  9  1  0
M  END
$$$$
