No_9627-complexes_sdf/6BKW-FPZ/2024-09-17-14-21-01/
     RDKit          3D

 31 34  0  0  0  0  0  0  0  0999 V2000
   -7.9040    3.9820   27.1177 C   0  0  0  0  0  0  0  0  0  0  0  0
   -8.2057    2.8231   26.8733 C   0  0  0  0  0  0  0  0  0  0  0  0
   -9.2962    2.4021   26.1155 C   0  0  0  0  0  0  0  0  0  0  0  0
   -8.7358    5.0662   26.5917 C   0  0  0  0  0  0  0  0  0  0  0  0
   -9.7618    4.7023   25.7546 C   0  0  0  0  0  0  0  0  0  0  0  0
  -10.0066    3.4105   25.4922 C   0  0  0  0  0  0  0  0  0  0  0  0
   -8.3936    6.4769   26.8844 C   0  0  0  0  0  0  0  0  0  0  0  0
   -8.0307    6.8601   28.0802 N   0  0  0  0  0  0  0  0  0  0  0  0
   -8.3173    7.3856   25.9441 N   0  0  0  0  0  0  0  0  0  0  0  0
   -7.3547    1.6751   27.5005 C   0  0  0  0  0  0  0  0  0  0  0  0
   -7.7589    0.4168   27.4165 N   0  0  0  0  0  0  0  0  0  0  0  0
   -8.9022    0.0032   27.4442 C   0  0  0  0  0  0  0  0  0  0  0  0
   -6.1420    2.0297   27.8178 O   0  0  0  0  0  0  0  0  0  0  0  0
   -9.0599   -1.4092   27.2596 C   0  0  0  0  0  0  0  0  0  0  0  0
   -7.9081   -2.0052   27.3499 C   0  0  0  0  0  0  0  0  0  0  0  0
   -6.8826   -0.7322   27.4022 C   0  0  0  0  0  0  0  0  0  0  0  0
  -11.0081    3.1203   24.6668 F   0  0  0  0  0  0  0  0  0  0  0  0
  -10.3324   -2.1241   27.2898 C   0  0  0  0  0  0  0  0  0  0  0  0
  -11.2695   -2.0682   28.0380 N   0  0  0  0  0  0  0  0  0  0  0  0
  -11.2668   -1.5026   29.1284 C   0  0  0  0  0  0  0  0  0  0  0  0
  -12.5999   -2.6648   27.6562 C   0  0  0  0  0  0  0  0  0  0  0  0
  -10.4253   -2.8160   26.1355 O   0  0  0  0  0  0  0  0  0  0  0  0
  -13.7001   -2.0795   28.1559 C   0  0  0  0  0  0  0  0  0  0  0  0
  -12.4516   -0.8908   29.8443 C   0  0  0  0  0  0  0  0  0  0  0  0
  -13.6327   -1.4200   29.4383 C   0  0  0  0  0  0  0  0  0  0  0  0
  -14.8554   -0.8635   30.0558 C   0  0  0  0  0  0  0  0  0  0  0  0
  -15.8394   -1.4052   30.1183 C   0  0  0  0  0  0  0  0  0  0  0  0
  -17.0451   -0.9027   30.7981 C   0  0  0  0  0  0  0  0  0  0  0  0
  -16.9645    0.1201   31.2193 C   0  0  0  0  0  0  0  0  0  0  0  0
  -14.7777    0.4951   30.7164 C   0  0  0  0  0  0  0  0  0  0  0  0
  -15.7935    1.0180   31.3228 C   0  0  0  0  0  0  0  0  0  0  0  0
  4  7  1  0
  7  8  2  0
  7  9  1  0
  2 10  1  0
 10 11  1  0
 11 12  1  0
 10 13  2  0
 12 14  2  0
 14 15  1  0
 11 16  1  0
 15 16  2  0
  6 17  1  0
 14 18  1  0
 18 19  1  0
 19 20  1  0
 19 21  1  0
 18 22  2  0
 23 25  1  0
 24 25  1  0
 25 26  1  0
 20 24  1  0
 23 21  1  0
 26 27  2  0
 27 28  1  0
 28 29  2  0
 29 31  1  0
 31 30  2  0
 30 26  1  0
  1  2  2  0
  2  3  1  0
  3  6  2  0
  6  5  1  0
  5  4  2  0
  4  1  1  0
M  END
$$$$
