No_9106-complexes_sdf/6BKW-FPZ/2024-09-17-14-21-01/
     RDKit          3D

 18 20  0  0  0  0  0  0  0  0999 V2000
   -7.2496    3.8871   27.4508 C   0  0  0  0  0  0  0  0  0  0  0  0
   -7.6161    2.7143   27.1523 C   0  0  0  0  0  0  0  0  0  0  0  0
   -7.1618    1.8631   27.5232 C   0  0  0  0  0  0  0  0  0  0  0  0
   -5.9773    4.1571   28.0182 C   0  0  0  0  0  0  0  0  0  0  0  0
   -5.7613    1.7985   28.0431 C   0  0  0  0  0  0  0  0  0  0  0  0
   -5.0420    0.7273   28.3219 N   0  0  0  0  0  0  0  0  0  0  0  0
   -5.2343    3.1418   28.2838 C   0  0  0  0  0  0  0  0  0  0  0  0
   -3.8797    0.7062   28.9468 C   0  0  0  0  0  0  0  0  0  0  0  0
   -5.6381   -0.5885   28.1274 C   0  0  0  0  0  0  0  0  0  0  0  0
   -8.0860    5.1777   27.1098 C   0  0  0  0  0  0  0  0  0  0  0  0
   -7.9219    6.4205   27.8057 C   0  0  0  0  0  0  0  0  0  0  0  0
   -9.0080    5.1313   26.0529 C   0  0  0  0  0  0  0  0  0  0  0  0
   -8.6409    7.4987   27.3492 C   0  0  0  0  0  0  0  0  0  0  0  0
   -5.1917   -1.5466   28.8675 C   0  0  0  0  0  0  0  0  0  0  0  0
   -3.2579   -0.2941   29.6711 C   0  0  0  0  0  0  0  0  0  0  0  0
   -3.8818   -1.5270   29.5472 C   0  0  0  0  0  0  0  0  0  0  0  0
   -9.3897    3.8992   25.5218 C   0  0  0  0  0  0  0  0  0  0  0  0
   -8.8118    2.6670   26.1303 C   0  0  0  0  0  0  0  0  0  0  0  0
  5  6  1  0
  6  8  1  0
  6  9  1  0
 11 13  1  0
  8 15  1  0
 14 16  1  0
 11 10  1  0
 15 16  1  0
 14  9  1  0
  2 18  1  0
 18 17  2  0
 17 12  1  0
 12 10  2  0
 10  1  1  0
  1  2  1  0
  2  3  2  0
  3  5  1  0
  5  7  2  0
  7  4  1  0
  4  1  2  0
M  END
$$$$
