No_9552-complexes_sdf/6BKW-FPZ/2024-09-17-14-21-01/
     RDKit          3D

 30 32  0  0  0  0  0  0  0  0999 V2000
   -7.2496    3.8871   27.4508 C   0  0  0  0  0  0  0  0  0  0  0  0
   -7.9379    4.9063   27.8518 C   0  0  1  0  0  0  0  0  0  0  0  0
   -7.5112    6.1898   27.6280 C   0  0  0  0  0  0  0  0  0  0  0  0
   -9.3085    4.6933   28.2930 C   0  0  0  0  0  0  0  0  0  0  0  0
   -6.9423    2.7756   27.7939 C   0  0  0  0  0  0  0  0  0  0  0  0
   -6.4781    1.5535   27.2630 C   0  0  0  0  0  0  0  0  0  0  0  0
   -5.6095    0.7996   27.9487 C   0  0  0  0  0  0  0  0  0  0  0  0
   -5.7819   -0.5762   28.1175 C   0  0  0  0  0  0  0  0  0  0  0  0
   -6.8062   -1.1584   27.4960 C   0  0  0  0  0  0  0  0  0  0  0  0
   -7.7160   -0.3886   26.6930 C   0  0  0  0  0  0  0  0  0  0  0  0
   -7.5122    0.8881   26.5504 C   0  0  0  0  0  0  0  0  0  0  0  0
   -4.6132    1.3642   28.6921 F   0  0  0  0  0  0  0  0  0  0  0  0
   -8.4948    7.2776   27.1266 C   0  0  0  0  0  0  0  0  0  0  0  0
   -9.8171    3.4675   28.4186 C   0  0  0  0  0  0  0  0  0  0  0  0
   -9.6658    2.4720   27.5489 C   0  0  0  0  0  0  0  0  0  0  0  0
  -10.6447    1.3227   27.6272 C   0  0  0  0  0  0  0  0  0  0  0  0
  -10.8427    0.6776   28.7401 C   0  0  0  0  0  0  0  0  0  0  0  0
  -11.8538   -0.3554   28.8912 C   0  0  0  0  0  0  0  0  0  0  0  0
  -12.5045   -0.7067   27.6849 C   0  0  0  0  0  0  0  0  0  0  0  0
  -12.3075   -0.0625   26.5235 C   0  0  0  0  0  0  0  0  0  0  0  0
  -11.3844    0.9740   26.4694 C   0  0  0  0  0  0  0  0  0  0  0  0
   -8.7320   -1.1558   25.9262 C   0  0  0  0  0  0  0  0  0  0  0  0
   -9.2679   -2.3008   26.3626 C   0  0  0  0  0  0  0  0  0  0  0  0
  -10.1841   -2.9847   25.5856 C   0  0  0  0  0  0  0  0  0  0  0  0
  -10.5067   -2.5025   24.3271 C   0  0  0  0  0  0  0  0  0  0  0  0
   -9.8972   -1.3487   23.8468 C   0  0  0  0  0  0  0  0  0  0  0  0
   -8.9624   -0.6418   24.6308 C   0  0  0  0  0  0  0  0  0  0  0  0
  -13.0635   -0.4409   25.3481 C   0  0  0  0  0  0  0  0  0  0  0  0
  -13.1298    0.3814   24.2773 C   0  0  0  0  0  0  0  0  0  0  0  0
  -13.8496   -0.0182   23.1275 C   0  0  0  0  0  0  0  0  0  0  0  0
  1  2  1  0
  2  3  1  0
  2  4  1  6
  1  5  2  3
  5  6  1  0
  7 12  1  0
  3 13  2  0
  4 14  1  0
 14 15  2  3
 15 16  1  0
 10 22  1  0
 20 28  1  0
 28 29  2  3
 29 30  1  0
 22 23  2  0
 23 24  1  0
 24 25  2  0
 25 26  1  0
 26 27  2  0
 27 22  1  0
  6  7  2  0
  7  8  1  0
  8  9  2  0
  9 10  1  0
 10 11  2  0
 11  6  1  0
 16 17  2  0
 17 18  1  0
 18 19  2  0
 19 20  1  0
 20 21  2  0
 21 16  1  0
M  END
$$$$
