No_9542-complexes_sdf/6BKW-FPZ/2024-09-17-14-21-01/
     RDKit          3D

 19 22  0  0  0  0  0  0  0  0999 V2000
   -7.9040    3.9820   27.1177 C   0  0  2  0  0  0  0  0  0  0  0  0
   -7.8663    4.8694   27.9238 C   0  0  0  0  0  0  0  0  0  0  0  0
   -9.0491    3.8523   26.2542 C   0  0  0  0  0  0  0  0  0  0  0  0
   -9.4067    2.6808   25.6532 C   0  0  0  0  0  0  0  0  0  0  0  0
   -8.4979    6.1198   27.7613 C   0  0  0  0  0  0  0  0  0  0  0  0
   -9.5967    6.1558   26.9018 C   0  0  0  0  0  0  0  0  0  0  0  0
   -9.7441    5.0354   26.1190 C   0  0  0  0  0  0  0  0  0  0  0  0
  -10.0031    2.6511   24.3985 C   0  0  0  0  0  0  0  0  0  0  0  0
  -10.5030    3.8403   23.8389 C   0  0  0  0  0  0  0  0  0  0  0  0
  -10.4275    5.0690   24.7399 C   0  0  0  0  0  0  0  0  0  0  0  0
   -7.1254    2.6800   27.4277 C   0  0  0  0  0  0  0  0  0  0  0  0
   -7.4851    1.4189   27.0662 C   0  0  0  0  0  0  0  0  0  0  0  0
   -8.4922    1.4381   25.9112 C   0  0  0  0  0  0  0  0  0  0  0  0
   -6.8205    0.2583   27.3386 C   0  0  0  0  0  0  0  0  0  0  0  0
   -7.4217   -0.9663   27.4095 C   0  0  0  0  0  0  0  0  0  0  0  0
   -6.7613   -2.1058   27.9012 C   0  0  0  0  0  0  0  0  0  0  0  0
   -5.4447    0.3205   27.7799 C   0  0  0  0  0  0  0  0  0  0  0  0
   -4.7698   -0.7896   28.3286 C   0  0  0  0  0  0  0  0  0  0  0  0
   -5.4450   -1.9947   28.3787 C   0  0  0  0  0  0  0  0  0  0  0  0
  1  2  1  1
  1  3  1  0
  3  4  2  0
  2  5  1  0
  5  6  1  0
  3  7  1  0
  6  7  2  0
  4  8  1  0
  8  9  2  0
  7 10  1  0
  9 10  1  0
  1 11  1  0
 11 12  2  0
  4 13  1  0
 12 13  1  0
 12 14  1  0
 14 15  2  0
 15 16  1  0
 14 17  1  0
 17 18  2  0
 16 19  1  0
 18 19  1  0
M  END
$$$$
