No_9146-complexes_sdf/6BKW-FPZ/2024-09-17-14-21-01/
     RDKit          3D

 29 32  0  0  0  0  0  0  0  0999 V2000
   -7.9040    3.9820   27.1177 C   0  0  0  0  0  0  0  0  0  0  0  0
   -8.2057    2.8231   26.8733 C   0  0  0  0  0  0  0  0  0  0  0  0
   -9.3234    2.2125   27.0599 C   0  0  0  0  0  0  0  0  0  0  0  0
   -9.0146    4.9428   27.2420 C   0  0  0  0  0  0  0  0  0  0  0  0
  -10.2851    4.4096   27.2820 C   0  0  0  0  0  0  0  0  0  0  0  0
  -10.4907    3.0453   27.2378 C   0  0  0  0  0  0  0  0  0  0  0  0
   -8.7905    6.2267   27.3916 F   0  0  0  0  0  0  0  0  0  0  0  0
   -9.5532    0.7363   26.8909 C   0  0  0  0  0  0  0  0  0  0  0  0
   -9.8674    0.3361   25.8197 N   0  0  0  0  0  0  0  0  0  0  0  0
  -10.3343    0.9563   24.8607 C   0  0  0  0  0  0  0  0  0  0  0  0
  -11.3030    1.4875   24.7076 C   0  0  0  0  0  0  0  0  0  0  0  0
  -11.7546    2.1334   23.7668 C   0  0  0  0  0  0  0  0  0  0  0  0
  -10.9482    2.2659   22.5516 C   0  0  0  0  0  0  0  0  0  0  0  0
   -9.7604    1.5847   22.5242 C   0  0  0  0  0  0  0  0  0  0  0  0
   -9.3388    0.9398   23.6333 C   0  0  0  0  0  0  0  0  0  0  0  0
   -9.6630   -1.1806   25.6305 C   0  0  0  0  0  0  0  0  0  0  0  0
   -9.3016    0.1416   28.0030 O   0  0  0  0  0  0  0  0  0  0  0  0
  -10.4768   -1.9905   26.1564 C   0  0  0  0  0  0  0  0  0  0  0  0
  -10.3466   -3.3498   25.9772 C   0  0  0  0  0  0  0  0  0  0  0  0
   -9.2815   -3.8016   25.1802 C   0  0  0  0  0  0  0  0  0  0  0  0
   -8.5871   -1.6391   24.8423 C   0  0  0  0  0  0  0  0  0  0  0  0
   -8.3738   -2.9220   24.6578 C   0  0  0  0  0  0  0  0  0  0  0  0
   -7.2517   -3.3908   23.8316 C   0  0  0  0  0  0  0  0  0  0  0  0
   -6.9444   -2.7787   22.7806 C   0  0  0  0  0  0  0  0  0  0  0  0
   -5.7940   -3.1326   21.9443 C   0  0  0  0  0  0  0  0  0  0  0  0
   -4.9602   -4.1057   22.3690 C   0  0  0  0  0  0  0  0  0  0  0  0
   -5.2478   -4.7322   23.5531 C   0  0  0  0  0  0  0  0  0  0  0  0
   -6.3051   -4.3840   24.3132 C   0  0  0  0  0  0  0  0  0  0  0  0
  -11.3818    2.9573   21.4713 F   0  0  0  0  0  0  0  0  0  0  0  0
  4  7  1  0
  3  8  1  0
  8  9  1  0
  9 10  1  0
  9 16  1  0
  8 17  2  0
 22 23  1  0
 13 29  1  0
 23 24  2  0
 24 25  1  0
 25 26  2  0
 26 27  1  0
 27 28  2  0
 28 23  1  0
  1  2  2  0
  2  3  1  0
  3  6  2  0
  6  5  1  0
  5  4  2  0
  4  1  1  0
 16 18  2  0
 18 19  1  0
 19 20  2  0
 20 22  1  0
 22 21  2  0
 21 16  1  0
 10 11  2  0
 11 12  1  0
 12 13  2  0
 13 14  1  0
 14 15  2  0
 15 10  1  0
M  END
$$$$
