No_9843-complexes_sdf/6BKW-FPZ/2024-09-17-14-21-01/
     RDKit          3D

 28 31  0  0  0  0  0  0  0  0999 V2000
   -7.9040    3.9820   27.1177 C   0  0  0  0  0  0  0  0  0  0  0  0
   -9.0711    4.3164   27.0630 C   0  0  0  0  0  0  0  0  0  0  0  0
   -9.8698    3.9665   25.9495 C   0  0  0  0  0  0  0  0  0  0  0  0
   -7.4046    2.7946   26.4568 C   0  0  0  0  0  0  0  0  0  0  0  0
   -8.3659    2.1310   25.6816 C   0  0  0  0  0  0  0  0  0  0  0  0
   -9.5390    2.7825   25.4030 C   0  0  0  0  0  0  0  0  0  0  0  0
   -6.7904    4.6933   28.2959 Cl  0  0  0  0  0  0  0  0  0  0  0  0
  -10.4510    2.1780   24.3668 C   0  0  0  0  0  0  0  0  0  0  0  0
  -10.9482    2.6837   23.4237 C   0  0  0  0  0  0  0  0  0  0  0  0
  -11.7844    2.1035   22.3978 C   0  0  0  0  0  0  0  0  0  0  0  0
  -11.1532    0.9722   24.7038 C   0  0  0  0  0  0  0  0  0  0  0  0
  -11.9519    0.2967   23.8270 C   0  0  0  0  0  0  0  0  0  0  0  0
  -12.3095    0.9276   22.6769 C   0  0  0  0  0  0  0  0  0  0  0  0
  -10.3740    4.1357   22.9080 C   0  0  0  0  0  0  0  0  0  0  0  0
  -10.5363    5.1820   23.8476 C   0  0  0  0  0  0  0  0  0  0  0  0
  -10.1659    5.0171   25.2093 C   0  0  0  0  0  0  0  0  0  0  0  0
   -7.9672    0.8243   25.1235 C   0  0  0  0  0  0  0  0  0  0  0  0
   -7.3758    0.0139   25.9286 O   0  0  0  0  0  0  0  0  0  0  0  0
   -8.1421    0.5751   23.9338 O   0  0  0  0  0  0  0  0  0  0  0  0
   -7.6224   -0.5856   23.3329 C   0  0  0  0  0  0  0  0  0  0  0  0
   -8.4616   -1.0769   22.2736 C   0  0  0  0  0  0  0  0  0  0  0  0
   -8.0088   -2.0947   21.4968 C   0  0  0  0  0  0  0  0  0  0  0  0
   -6.6805   -2.6367   21.7681 C   0  0  0  0  0  0  0  0  0  0  0  0
   -5.9267   -2.0961   22.7636 C   0  0  0  0  0  0  0  0  0  0  0  0
   -6.3673   -1.0314   23.4897 C   0  0  0  0  0  0  0  0  0  0  0  0
   -6.2394   -3.6864   20.8560 C   0  0  0  0  0  0  0  0  0  0  0  0
   -6.6520   -3.9415   19.8055 O   0  0  0  0  0  0  0  0  0  0  0  0
   -4.9989   -4.1019   21.0567 O   0  0  0  0  0  0  0  0  0  0  0  0
  1  7  1  0
  6  8  1  0
  9 14  1  0
 14 15  1  0
  3 16  1  0
 15 16  2  0
  5 17  1  0
 17 18  2  0
 17 19  1  0
 19 20  1  0
 23 26  1  0
 26 27  2  0
 26 28  1  0
  8  9  2  0
  9 10  1  0
 10 13  2  0
 13 12  1  0
 12 11  2  0
 11  8  1  0
  1  2  2  0
  2  3  1  0
  3  6  2  0
  6  5  1  0
  5  4  2  0
  4  1  1  0
 20 21  2  0
 21 22  1  0
 22 23  2  0
 23 24  1  0
 24 25  2  0
 25 20  1  0
M  END
$$$$
