No_9215-complexes_sdf/6BKW-FPZ/2024-09-17-14-21-01/
     RDKit          3D

 20 22  0  0  0  0  0  0  0  0999 V2000
   -7.7129    4.2099   27.0854 C   0  0  0  0  0  0  0  0  0  0  0  0
   -7.7814    5.1722   27.8972 C   0  0  0  0  0  0  0  0  0  0  0  0
   -8.8255    3.2789   27.1191 C   0  0  2  0  0  0  0  0  0  0  0  0
   -8.7530    2.0643   26.3119 C   0  0  0  0  0  0  0  0  0  0  0  0
   -7.6193    1.3092   26.4290 C   0  0  0  0  0  0  0  0  0  0  0  0
   -6.4967    1.8988   27.1623 C   0  0  2  0  0  0  0  0  0  0  0  0
   -6.4808    3.2746   27.5519 C   0  0  0  0  0  0  0  0  0  0  0  0
  -10.0316    3.6913   27.7418 C   0  0  0  0  0  0  0  0  0  0  0  0
  -10.6261    2.8853   28.6040 C   0  0  0  0  0  0  0  0  0  0  0  0
  -10.6435    4.9598   27.5786 C   0  0  0  0  0  0  0  0  0  0  0  0
  -11.9229    3.1444   29.1459 C   0  0  0  0  0  0  0  0  0  0  0  0
  -11.9162    5.2985   28.0523 C   0  0  0  0  0  0  0  0  0  0  0  0
  -12.5159    4.3799   28.8573 C   0  0  0  0  0  0  0  0  0  0  0  0
   -5.1663    1.2846   27.2586 C   0  0  0  0  0  0  0  0  0  0  0  0
   -5.0179    0.4033   28.2971 N   0  0  0  0  0  0  0  0  0  0  0  0
   -5.7692   -0.5834   28.6786 C   0  0  0  0  0  0  0  0  0  0  0  0
   -5.4361   -1.3262   29.8337 C   0  0  0  0  0  0  0  0  0  0  0  0
   -4.0599    0.7598   29.3887 C   0  0  0  0  0  0  0  0  0  0  0  0
   -3.7980    0.1156   30.4605 N   0  0  0  0  0  0  0  0  0  0  0  0
   -4.5018   -0.9162   30.7422 C   0  0  0  0  0  0  0  0  0  0  0  0
  1  2  2  0
  1  3  1  0
  3  4  1  0
  4  5  1  0
  5  6  1  0
  1  7  1  0
  6  7  1  0
  3  8  1  6
  6 14  1  6
 14 15  1  0
 15 16  1  0
 15 18  1  0
 18 19  1  0
 17 20  1  0
 16 17  1  0
 20 19  1  0
  8  9  2  0
  9 11  1  0
 11 13  2  0
 13 12  1  0
 12 10  2  0
 10  8  1  0
M  END
$$$$
