No_9170-complexes_sdf/6BKW-FPZ/2024-09-17-14-21-01/
     RDKit          3D

 17 18  0  0  0  0  0  0  0  0999 V2000
   -7.2496    3.8871   27.4508 C   0  0  0  0  0  0  0  0  0  0  0  0
   -8.5096    4.0291   27.2770 C   0  0  0  0  0  0  0  0  0  0  0  0
   -9.3451    2.8786   26.9046 C   0  0  0  0  0  0  0  0  0  0  0  0
   -6.6065    2.5680   27.5073 C   0  0  0  0  0  0  0  0  0  0  0  0
   -7.4233    1.4858   27.2402 C   0  0  0  0  0  0  0  0  0  0  0  0
   -8.7362    1.6525   26.9989 C   0  0  0  0  0  0  0  0  0  0  0  0
   -9.1023    5.3710   27.2131 C   0  0  0  0  0  0  0  0  0  0  0  0
   -8.7048    6.1559   26.4478 F   0  0  0  0  0  0  0  0  0  0  0  0
  -10.5477    5.2155   27.0189 F   0  0  0  0  0  0  0  0  0  0  0  0
   -8.9422    5.9606   28.4999 F   0  0  0  0  0  0  0  0  0  0  0  0
   -6.5696    0.2531   27.2731 C   0  0  0  0  0  0  0  0  0  0  0  0
   -6.6946   -0.5509   28.0958 C   0  0  0  0  0  0  0  0  0  0  0  0
   -5.8815   -1.7955   28.2168 C   0  0  0  0  0  0  0  0  0  0  0  0
   -4.9611   -1.9841   27.2072 C   0  0  0  0  0  0  0  0  0  0  0  0
   -5.5962   -0.0899   26.3548 C   0  0  0  0  0  0  0  0  0  0  0  0
   -4.8308   -1.0772   26.2085 C   0  0  0  0  0  0  0  0  0  0  0  0
   -9.4749    0.6030   26.7216 F   0  0  0  0  0  0  0  0  0  0  0  0
  2  7  1  0
  7  8  1  0
  7  9  1  0
  7 10  1  0
  5 11  1  0
  6 17  1  0
  1  2  2  0
  2  3  1  0
  3  6  2  0
  6  5  1  0
  5  4  2  0
  4  1  1  0
 11 12  2  0
 12 13  1  0
 13 14  2  0
 14 16  1  0
 16 15  2  0
 15 11  1  0
M  END
$$$$
