No_9334-complexes_sdf/6BKW-FPZ/2024-09-17-14-21-01/
     RDKit          3D

 15 16  0  0  0  0  0  0  0  0999 V2000
   -7.7129    4.2099   27.0854 C   0  0  0  0  0  0  0  0  0  0  0  0
   -7.7814    5.1722   27.8972 C   0  0  0  0  0  0  0  0  0  0  0  0
   -7.3155    2.9699   27.6145 C   0  0  0  0  0  0  0  0  0  0  0  0
   -6.0554    2.7539   27.5147 C   0  0  0  0  0  0  0  0  0  0  0  0
   -8.3871    6.4697   27.4628 C   0  0  0  0  0  0  0  0  0  0  0  0
   -5.4717    1.4545   27.9047 C   0  0  0  0  0  0  0  0  0  0  0  0
   -6.2362    0.3185   27.8599 C   0  0  0  0  0  0  0  0  0  0  0  0
   -7.6359    0.5184   27.5525 C   0  0  0  0  0  0  0  0  0  0  0  0
   -8.1611    1.8150   27.3537 C   0  0  0  0  0  0  0  0  0  0  0  0
   -8.6544    4.3418   26.0103 C   0  0  0  0  0  0  0  0  0  0  0  0
   -9.3717    5.4470   25.6334 C   0  0  0  0  0  0  0  0  0  0  0  0
   -9.1485    6.5918   26.4019 C   0  0  0  0  0  0  0  0  0  0  0  0
   -5.7265   -0.9592   28.1235 C   0  0  0  0  0  0  0  0  0  0  0  0
   -6.3801   -1.9121   28.3447 C   0  0  0  0  0  0  0  0  0  0  0  0
   -5.9205   -3.1631   28.7684 C   0  0  0  0  0  0  0  0  0  0  0  0
  1  3  1  0
  7 13  1  0
 13 14  2  3
 14 15  1  0
  3  4  2  0
  4  6  1  0
  6  7  2  0
  7  8  1  0
  8  9  2  0
  9  3  1  0
  1  2  2  0
  2  5  1  0
  5 12  2  0
 12 11  1  0
 11 10  2  0
 10  1  1  0
M  END
$$$$
