No_9462-complexes_sdf/6BKW-FPZ/2024-09-17-14-21-01/
     RDKit          3D

 20 22  0  0  0  0  0  0  0  0999 V2000
   -7.2496    3.8871   27.4508 C   0  0  0  0  0  0  0  0  0  0  0  0
   -7.6161    2.7143   27.1523 C   0  0  0  0  0  0  0  0  0  0  0  0
   -8.8302    2.4659   26.5056 C   0  0  0  0  0  0  0  0  0  0  0  0
   -8.1584    5.0090   27.3234 C   0  0  0  0  0  0  0  0  0  0  0  0
   -9.3788    4.7965   26.7695 C   0  0  0  0  0  0  0  0  0  0  0  0
   -9.7028    3.5649   26.3276 C   0  0  0  0  0  0  0  0  0  0  0  0
   -6.7190    1.5585   27.3667 C   0  0  0  0  0  0  0  0  0  0  0  0
   -5.4774    1.7392   28.0696 C   0  0  0  0  0  0  0  0  0  0  0  0
   -4.6023    0.6521   28.2584 C   0  0  0  0  0  0  0  0  0  0  0  0
   -5.0190   -0.6205   27.9573 C   0  0  0  0  0  0  0  0  0  0  0  0
   -7.0342    0.2294   27.1388 C   0  0  0  0  0  0  0  0  0  0  0  0
   -8.3397    0.0490   26.5728 C   0  0  0  0  0  0  0  0  0  0  0  0
   -9.1980    1.1282   26.2562 C   0  0  0  0  0  0  0  0  0  0  0  0
   -6.2686   -0.8359   27.4250 C   0  0  0  0  0  0  0  0  0  0  0  0
   -7.6933    6.3571   27.8125 C   0  0  0  0  0  0  0  0  0  0  0  0
   -2.9123    1.2297   28.9636 Br  0  0  0  0  0  0  0  0  0  0  0  0
   -8.3969    7.4163   27.2905 N   0  0  0  0  0  0  0  0  0  0  0  0
  -10.9812    3.4066   25.6197 C   0  0  0  0  0  0  0  0  0  0  0  0
  -11.0209    3.6736   24.2730 C   0  0  0  0  0  0  0  0  0  0  0  0
  -12.2524    3.5888   23.5665 C   0  0  0  0  0  0  0  0  0  0  0  0
  2  7  1  0
 11 12  1  0
  3 13  1  0
 12 13  1  0
  4 15  1  0
  9 16  1  0
 15 17  1  0
  6 18  1  0
 18 19  2  3
 19 20  1  0
  1  2  2  0
  2  3  1  0
  3  6  2  0
  6  5  1  0
  5  4  2  0
  4  1  1  0
  7  8  2  0
  8  9  1  0
  9 10  2  0
 10 14  1  0
 14 11  2  0
 11  7  1  0
M  END
$$$$
