No_9277-complexes_sdf/6BKW-FPZ/2024-09-17-14-21-01/
     RDKit          3D

 16 18  0  0  0  0  0  0  0  0999 V2000
   -7.7129    4.2099   27.0854 C   0  0  0  0  0  0  0  0  0  0  0  0
   -7.7814    5.1722   27.8972 C   0  0  0  0  0  0  0  0  0  0  0  0
   -8.8998    3.8713   26.3707 C   0  0  0  0  0  0  0  0  0  0  0  0
   -8.9563    2.6796   25.5490 C   0  0  0  0  0  0  0  0  0  0  0  0
   -8.8131    6.1334   27.9344 C   0  0  0  0  0  0  0  0  0  0  0  0
   -9.9804    5.8121   27.1929 C   0  0  0  0  0  0  0  0  0  0  0  0
   -9.9861    4.6836   26.4532 C   0  0  0  0  0  0  0  0  0  0  0  0
   -8.2588    1.6746   25.9379 O   0  0  0  0  0  0  0  0  0  0  0  0
   -9.4709    2.7257   24.2815 N   0  0  0  0  0  0  0  0  0  0  0  0
   -9.5853    1.6175   23.4245 C   0  0  0  0  0  0  0  0  0  0  0  0
  -10.2180    1.9045   22.2298 C   0  0  0  0  0  0  0  0  0  0  0  0
  -10.7505    3.1792   21.9552 C   0  0  0  0  0  0  0  0  0  0  0  0
  -10.6831    4.1968   22.9129 C   0  0  0  0  0  0  0  0  0  0  0  0
  -10.1112    3.9839   24.0822 C   0  0  1  0  0  0  0  0  0  0  0  0
  -10.7080    4.6927   25.2224 N   0  0  0  0  0  0  0  0  0  0  0  0
   -6.7148    5.4961   28.7293 O   0  0  0  0  0  0  0  0  0  0  0  0
  3  4  1  0
  4  8  2  0
  4  9  1  0
  9 10  1  0
 11 12  1  0
  9 14  1  0
 14 13  1  6
  7 15  1  0
 14 15  1  0
  2 16  1  0
 10 11  1  0
 12 13  1  0
  1  2  2  0
  2  5  1  0
  5  6  2  0
  6  7  1  0
  7  3  2  0
  3  1  1  0
M  END
$$$$
