No_9504-complexes_sdf/6BKW-FPZ/2024-09-17-14-21-01/
     RDKit          3D

 20 22  0  0  0  0  0  0  0  0999 V2000
   -7.7129    4.2099   27.0854 C   0  0  0  0  0  0  0  0  0  0  0  0
   -8.2112    3.0637   26.9225 C   0  0  0  0  0  0  0  0  0  0  0  0
   -8.4224    5.2106   27.8516 C   0  0  0  0  0  0  0  0  0  0  0  0
   -7.4917    1.9381   26.3986 C   0  0  0  0  0  0  0  0  0  0  0  0
   -9.7695    5.0306   28.1322 C   0  0  0  0  0  0  0  0  0  0  0  0
   -9.5975    2.7583   27.3362 C   0  0  0  0  0  0  0  0  0  0  0  0
  -10.3362    3.8114   27.9177 C   0  0  0  0  0  0  0  0  0  0  0  0
   -8.0546    0.9997   25.7071 N   0  0  0  0  0  0  0  0  0  0  0  0
  -11.6988    3.4876   28.3631 C   0  0  0  0  0  0  0  0  0  0  0  0
  -11.9887    2.2932   28.9946 C   0  0  0  0  0  0  0  0  0  0  0  0
  -13.2260    1.9492   29.4334 C   0  0  0  0  0  0  0  0  0  0  0  0
  -14.2139    2.9442   29.3722 C   0  0  0  0  0  0  0  0  0  0  0  0
  -13.9990    4.1912   28.8039 C   0  0  0  0  0  0  0  0  0  0  0  0
  -12.7035    4.5134   28.3133 C   0  0  0  0  0  0  0  0  0  0  0  0
   -7.5583   -0.1840   25.5198 C   0  0  0  0  0  0  0  0  0  0  0  0
   -8.0460   -1.2841   25.7926 C   0  0  0  0  0  0  0  0  0  0  0  0
   -7.4204   -2.4332   25.6386 C   0  0  0  0  0  0  0  0  0  0  0  0
   -6.0861   -2.4677   25.0674 C   0  0  0  0  0  0  0  0  0  0  0  0
   -5.5201   -1.2829   24.6988 C   0  0  0  0  0  0  0  0  0  0  0  0
   -6.1926   -0.0932   24.9341 C   0  0  0  0  0  0  0  0  0  0  0  0
  2  4  1  0
  4  8  2  3
  7  9  1  0
  8 15  1  0
 15 16  2  0
 16 17  1  0
 17 18  2  0
 18 19  1  0
 19 20  2  0
 20 15  1  0
  1  2  2  0
  2  6  1  0
  6  7  2  0
  7  5  1  0
  5  3  2  0
  3  1  1  0
  9 10  2  0
 10 11  1  0
 11 12  2  0
 12 13  1  0
 13 14  2  0
 14  9  1  0
M  END
$$$$
