No_900-complexes_sdf/6BKW-FPZ/2024-09-17-14-21-01/
     RDKit          3D

 26 29  0  0  0  0  0  0  0  0999 V2000
   -7.9040    3.9820   27.1177 C   0  0  0  0  0  0  0  0  0  0  0  0
   -9.0711    4.3164   27.0630 C   0  0  0  0  0  0  0  0  0  0  0  0
   -9.8698    3.9665   25.9495 C   0  0  0  0  0  0  0  0  0  0  0  0
   -7.0332    4.5030   28.2025 C   0  0  0  0  0  0  0  0  0  0  0  0
  -10.9909    4.7237   25.5958 C   0  0  0  0  0  0  0  0  0  0  0  0
   -7.5840    5.4918   28.9036 N   0  0  0  0  0  0  0  0  0  0  0  0
  -11.6517    5.1678   26.7607 C   0  0  0  0  0  0  0  0  0  0  0  0
  -11.1032    5.2198   28.0358 C   0  0  0  0  0  0  0  0  0  0  0  0
   -9.7890    4.8975   28.1756 C   0  0  0  0  0  0  0  0  0  0  0  0
   -8.9743    5.5952   28.9648 C   0  0  0  0  0  0  0  0  0  0  0  0
   -5.7521    4.3853   28.3473 N   0  0  0  0  0  0  0  0  0  0  0  0
   -9.1977    3.2525   24.8230 C   0  0  0  0  0  0  0  0  0  0  0  0
   -9.4469    1.8139   25.1474 C   0  0  0  0  0  0  0  0  0  0  0  0
   -9.1355    0.9631   24.0318 C   0  0  0  0  0  0  0  0  0  0  0  0
   -9.7389    1.1750   22.8546 C   0  0  0  0  0  0  0  0  0  0  0  0
   -9.5296    0.3266   21.7704 C   0  0  0  0  0  0  0  0  0  0  0  0
   -8.6520   -0.7762   21.9195 C   0  0  0  0  0  0  0  0  0  0  0  0
   -8.1388   -0.1270   24.0530 C   0  0  0  0  0  0  0  0  0  0  0  0
   -7.9523   -0.9323   23.0828 C   0  0  0  0  0  0  0  0  0  0  0  0
   -9.9490    1.1832   26.3053 C   0  0  0  0  0  0  0  0  0  0  0  0
  -10.4799    0.0186   26.4087 C   0  0  0  0  0  0  0  0  0  0  0  0
  -10.9670   -0.3861   27.6156 C   0  0  0  0  0  0  0  0  0  0  0  0
  -11.3010    0.5647   28.5965 C   0  0  0  0  0  0  0  0  0  0  0  0
  -10.8751    1.9104   28.5043 C   0  0  0  0  0  0  0  0  0  0  0  0
  -10.2721    2.2153   27.3758 C   0  0  0  0  0  0  0  0  0  0  0  0
   -9.3442    2.0998   27.9969 O   0  0  0  0  0  0  0  0  0  0  0  0
  4 11  1  0
  3 12  1  0
 12 13  1  0
 13 14  1  0
 13 20  1  0
 25 26  1  0
 20 21  2  0
 21 22  1  0
 22 23  2  0
 23 24  1  0
 24 25  2  0
 25 20  1  0
  2  3  1  0
  3  5  2  0
  5  7  1  0
  7  8  2  0
  8  9  1  0
 14 15  2  0
 15 16  1  0
 16 17  2  0
 17 19  1  0
 19 18  2  0
 18 14  1  0
  1  2  2  0
  2  9  1  0
  9 10  2  0
 10  6  1  0
  6  4  2  0
  4  1  1  0
M  END
$$$$
