No_9047-complexes_sdf/6BKW-FPZ/2024-09-17-14-21-01/
     RDKit          3D

 39 43  0  0  0  0  0  0  0  0999 V2000
   -7.9040    3.9820   27.1177 C   0  0  0  0  0  0  0  0  0  0  0  0
   -8.2057    2.8231   26.8733 C   0  0  0  0  0  0  0  0  0  0  0  0
   -9.2962    2.4021   26.1155 C   0  0  0  0  0  0  0  0  0  0  0  0
   -8.7358    5.0662   26.5917 C   0  0  0  0  0  0  0  0  0  0  0  0
   -9.7618    4.7023   25.7546 C   0  0  0  0  0  0  0  0  0  0  0  0
  -10.0066    3.4105   25.4922 C   0  0  0  0  0  0  0  0  0  0  0  0
   -8.3936    6.4769   26.8843 C   0  0  0  0  0  0  0  0  0  0  0  0
   -8.0660    7.5190   27.0318 N   0  0  0  0  0  0  0  0  0  0  0  0
   -9.5373    0.9624   25.8652 C   0  0  0  0  0  0  0  0  0  0  0  0
  -10.4509    0.3768   26.6080 C   0  0  0  0  0  0  0  0  0  0  0  0
  -10.5746   -0.9521   26.7070 C   0  0  0  0  0  0  0  0  0  0  0  0
   -9.7942   -1.7374   25.8667 C   0  0  0  0  0  0  0  0  0  0  0  0
   -8.6132    0.1775   25.1229 C   0  0  0  0  0  0  0  0  0  0  0  0
   -8.7654   -1.1504   25.0934 C   0  0  0  0  0  0  0  0  0  0  0  0
  -11.1113    3.0360   24.6072 C   0  0  0  0  0  0  0  0  0  0  0  0
  -12.3587    2.9386   25.0201 C   0  0  0  0  0  0  0  0  0  0  0  0
  -10.8134    2.8204   23.2340 C   0  0  0  0  0  0  0  0  0  0  0  0
  -11.7048    2.4229   22.3446 C   0  0  0  0  0  0  0  0  0  0  0  0
  -13.3827    2.5513   24.1320 C   0  0  0  0  0  0  0  0  0  0  0  0
  -13.0251    2.2865   22.7781 C   0  0  0  0  0  0  0  0  0  0  0  0
   -7.3727    1.8570   27.5218 O   0  0  0  0  0  0  0  0  0  0  0  0
   -5.9950    1.9565   27.5125 C   0  0  0  0  0  0  0  0  0  0  0  0
   -5.3322    0.7762   28.1685 C   0  0  0  0  0  0  0  0  0  0  0  0
   -5.9153   -0.3329   28.3422 C   0  0  0  0  0  0  0  0  0  0  0  0
   -5.3031   -1.4458   28.9415 C   0  0  0  0  0  0  0  0  0  0  0  0
   -3.9973   -1.2265   29.4306 C   0  0  0  0  0  0  0  0  0  0  0  0
   -3.3618   -0.0197   29.2946 C   0  0  0  0  0  0  0  0  0  0  0  0
   -3.9914    1.0175   28.6859 C   0  0  0  0  0  0  0  0  0  0  0  0
   -3.3174   -2.3842   30.1328 C   0  0  0  0  0  0  0  0  0  0  0  0
   -3.7491   -2.9336   31.0091 O   0  0  0  0  0  0  0  0  0  0  0  0
   -2.0785   -2.5874   29.6764 O   0  0  0  0  0  0  0  0  0  0  0  0
  -12.7968    3.2591   26.4355 C   0  0  0  0  0  0  0  0  0  0  0  0
  -12.1965    3.9102   27.2263 C   0  0  0  0  0  0  0  0  0  0  0  0
  -12.6239    4.2463   28.5950 C   0  0  0  0  0  0  0  0  0  0  0  0
  -13.9023    3.8664   28.9574 C   0  0  0  0  0  0  0  0  0  0  0  0
  -14.6119    3.0701   28.0476 C   0  0  0  0  0  0  0  0  0  0  0  0
  -14.1519    2.8126   26.8192 C   0  0  0  0  0  0  0  0  0  0  0  0
  -14.0792    1.8486   21.8809 C   0  0  0  0  0  0  0  0  0  0  0  0
  -15.1320    1.9617   21.9071 N   0  0  0  0  0  0  0  0  0  0  0  0
  4  7  1  0
  7  8  3  0
  3  9  1  0
  6 15  1  0
  2 21  1  0
 21 22  1  0
 22 23  1  0
 26 29  1  0
 29 30  2  0
 29 31  1  0
 16 32  1  0
 20 38  1  0
 38 39  2  0
 32 33  2  0
 33 34  1  0
 34 35  2  0
 35 36  1  0
 36 37  2  0
 37 32  1  0
 23 24  2  0
 24 25  1  0
 25 26  2  0
 26 27  1  0
 27 28  2  0
 28 23  1  0
  1  2  2  0
  2  3  1  0
  3  6  2  0
  6  5  1  0
  5  4  2  0
  4  1  1  0
 15 16  2  0
 16 19  1  0
 19 20  2  0
 20 18  1  0
 18 17  2  0
 17 15  1  0
  9 10  2  0
 10 11  1  0
 11 12  2  0
 12 14  1  0
 14 13  2  0
 13  9  1  0
M  END
$$$$
