No_9708-complexes_sdf/6BKW-FPZ/2024-09-17-14-21-01/
     RDKit          3D

 37 41  0  0  0  0  0  0  0  0999 V2000
   -7.7129    4.2099   27.0854 C   0  0  0  0  0  0  0  0  0  0  0  0
   -7.7814    5.1722   27.8972 C   0  0  0  0  0  0  0  0  0  0  0  0
   -8.8998    3.8713   26.3707 C   0  0  0  0  0  0  0  0  0  0  0  0
   -9.1401    2.5906   25.9433 C   0  0  0  0  0  0  0  0  0  0  0  0
   -8.5962    6.2844   27.4570 C   0  0  0  0  0  0  0  0  0  0  0  0
  -10.0494    2.3467   24.9137 C   0  0  0  0  0  0  0  0  0  0  0  0
   -9.7628    4.9330   26.3487 C   0  0  0  0  0  0  0  0  0  0  0  0
   -9.6335    6.1043   26.8250 C   0  0  0  0  0  0  0  0  0  0  0  0
   -8.4174    1.4906   26.4805 C   0  0  0  0  0  0  0  0  0  0  0  0
   -8.5572    0.1990   26.0085 C   0  0  0  0  0  0  0  0  0  0  0  0
  -10.1399    1.0354   24.3808 C   0  0  0  0  0  0  0  0  0  0  0  0
   -9.4411   -0.0031   24.9844 C   0  0  0  0  0  0  0  0  0  0  0  0
   -7.8486   -0.9364   26.6367 C   0  0  0  0  0  0  0  0  0  0  0  0
   -7.0263   -1.5023   26.2547 C   0  0  0  0  0  0  0  0  0  0  0  0
   -6.2429   -2.5721   26.9363 C   0  0  0  0  0  0  0  0  0  0  0  0
   -6.5825   -2.8384   28.2405 C   0  0  0  0  0  0  0  0  0  0  0  0
   -8.1567   -1.1129   28.1015 C   0  0  0  0  0  0  0  0  0  0  0  0
   -7.5829   -2.0588   28.8432 C   0  0  0  0  0  0  0  0  0  0  0  0
   -6.6301    5.5809   28.6517 O   0  0  0  0  0  0  0  0  0  0  0  0
  -11.0374    0.8384   23.2674 C   0  0  0  0  0  0  0  0  0  0  0  0
  -10.5506    0.6411   22.0869 C   0  0  0  0  0  0  0  0  0  0  0  0
  -11.2239    0.5265   20.8954 C   0  0  0  0  0  0  0  0  0  0  0  0
  -12.5873    0.5280   20.9986 C   0  0  0  0  0  0  0  0  0  0  0  0
  -12.4124    0.9366   23.3770 C   0  0  0  0  0  0  0  0  0  0  0  0
  -13.1853    0.7385   22.2288 C   0  0  0  0  0  0  0  0  0  0  0  0
  -13.4101    0.3248   19.7808 C   0  0  0  0  0  0  0  0  0  0  0  0
  -12.9815    0.1048   18.7007 C   0  0  0  0  0  0  0  0  0  0  0  0
  -13.7382   -0.1023   17.5271 C   0  0  0  0  0  0  0  0  0  0  0  0
  -15.1047   -0.0048   17.6874 C   0  0  0  0  0  0  0  0  0  0  0  0
  -15.6250    0.2677   18.8718 C   0  0  0  0  0  0  0  0  0  0  0  0
  -14.8367    0.4790   19.9843 C   0  0  0  0  0  0  0  0  0  0  0  0
  -17.0983    0.3636   19.0182 C   0  0  2  0  0  0  0  0  0  0  0  0
  -17.6398    1.0290   20.0773 C   0  0  0  0  0  0  0  0  0  0  0  0
  -17.8953   -0.3055   18.1176 C   0  0  0  0  0  0  0  0  0  0  0  0
  -17.2127    1.8248   20.8622 C   0  0  0  0  0  0  0  0  0  0  0  0
  -17.8107   -0.6051   17.1369 C   0  0  0  0  0  0  0  0  0  0  0  0
  -16.5306   -0.7925   16.3347 C   0  0  0  0  0  0  0  0  0  0  0  0
  3  4  1  0
 10 13  1  0
  2 19  1  0
 11 20  1  0
 23 26  1  0
 30 32  1  0
 32 33  1  1
 32 34  1  0
 33 35  2  0
 34 36  2  3
 36 37  1  0
  4  6  2  0
  6 11  1  0
 11 12  2  0
 12 10  1  0
 10  9  2  0
  9  4  1  0
 20 21  2  0
 21 22  1  0
 22 23  2  0
 23 25  1  0
 25 24  2  0
 24 20  1  0
 13 14  2  0
 14 15  1  0
 15 16  2  0
 16 18  1  0
 18 17  2  0
 17 13  1  0
  1  2  2  0
  2  5  1  0
  5  8  2  0
  8  7  1  0
  7  3  2  0
  3  1  1  0
 26 27  2  0
 27 28  1  0
 28 29  2  0
 29 30  1  0
 30 31  2  0
 31 26  1  0
M  END
$$$$
