No_9535-complexes_sdf/6BKW-FPZ/2024-09-17-14-21-01/
     RDKit          3D

 27 29  0  0  0  0  0  0  0  0999 V2000
   -7.9040    3.9820   27.1177 C   0  0  0  0  0  0  0  0  0  0  0  0
   -7.8663    4.8694   27.9238 C   0  0  0  0  0  0  0  0  0  0  0  0
   -7.4547    2.7080   27.4594 C   0  0  0  0  0  0  0  0  0  0  0  0
   -6.1474    2.6388   27.8014 C   0  0  0  0  0  0  0  0  0  0  0  0
   -8.5539    6.1392   27.6636 C   0  0  0  0  0  0  0  0  0  0  0  0
   -5.5162    1.3823   28.1415 C   0  0  0  0  0  0  0  0  0  0  0  0
   -6.2033    0.2241   27.9283 C   0  0  0  0  0  0  0  0  0  0  0  0
   -7.5336    0.2679   27.3874 C   0  0  0  0  0  0  0  0  0  0  0  0
   -8.1259    1.5316   27.1059 C   0  0  0  0  0  0  0  0  0  0  0  0
   -8.7488    4.1722   25.9534 C   0  0  0  0  0  0  0  0  0  0  0  0
   -9.4232    5.3536   25.6726 C   0  0  0  0  0  0  0  0  0  0  0  0
   -9.2484    6.4142   26.5747 C   0  0  0  0  0  0  0  0  0  0  0  0
   -5.5776   -1.0635   28.1999 C   0  0  0  0  0  0  0  0  0  0  0  0
   -6.0815   -2.0708   28.0180 F   0  0  0  0  0  0  0  0  0  0  0  0
   -5.2239   -0.9754   29.5820 F   0  0  0  0  0  0  0  0  0  0  0  0
   -4.3411   -1.0374   27.5819 F   0  0  0  0  0  0  0  0  0  0  0  0
   -9.4040    1.3919   26.7877 O   0  0  0  0  0  0  0  0  0  0  0  0
  -10.2832    0.5754   27.4058 C   0  0  0  0  0  0  0  0  0  0  0  0
  -11.2593    1.1401   28.1728 C   0  0  0  0  0  0  0  0  0  0  0  0
  -11.4012    2.5622   28.2517 C   0  0  0  0  0  0  0  0  0  0  0  0
  -12.3330    3.2273   29.0970 C   0  0  0  0  0  0  0  0  0  0  0  0
  -13.2025    2.4737   29.9091 C   0  0  0  0  0  0  0  0  0  0  0  0
  -14.0867    3.1285   30.7543 C   0  0  0  0  0  0  0  0  0  0  0  0
  -14.5621    2.5571   31.9125 C   0  0  0  0  0  0  0  0  0  0  0  0
  -14.5264    1.1641   31.9196 C   0  0  0  0  0  0  0  0  0  0  0  0
  -13.8529    0.4557   30.9877 C   0  0  0  0  0  0  0  0  0  0  0  0
  -13.0418    1.0895   30.0768 C   0  0  0  0  0  0  0  0  0  0  0  0
  7 13  1  0
 13 14  1  0
 13 15  1  0
 13 16  1  0
  9 17  1  0
 17 18  1  0
 18 19  2  3
 19 20  1  0
 20 21  2  3
 21 22  1  0
  3  1  1  0
  3  4  2  0
  4  6  1  0
  6  7  2  0
  7  8  1  0
  8  9  2  0
  9  3  1  0
 22 23  2  0
 23 24  1  0
 24 25  2  0
 25 26  1  0
 26 27  2  0
 27 22  1  0
  1  2  2  0
  2  5  1  0
  5 12  2  0
 12 11  1  0
 11 10  2  0
 10  1  1  0
M  END
$$$$
