No_9960-complexes_sdf/6BKW-FPZ/2024-09-17-14-21-01/
     RDKit          3D

 18 19  0  0  0  0  0  0  0  0999 V2000
   -7.2496    3.8871   27.4508 C   0  0  0  0  0  0  0  0  0  0  0  0
   -8.5096    4.0291   27.2770 C   0  0  0  0  0  0  0  0  0  0  0  0
   -9.3451    2.8786   26.9046 C   0  0  0  0  0  0  0  0  0  0  0  0
   -6.6065    2.5680   27.5073 C   0  0  0  0  0  0  0  0  0  0  0  0
   -7.4233    1.4858   27.2402 C   0  0  0  0  0  0  0  0  0  0  0  0
   -8.7362    1.6525   26.9989 C   0  0  0  0  0  0  0  0  0  0  0  0
   -8.9197    5.4825   27.2215 C   0  0  0  0  0  0  0  0  0  0  0  0
  -10.1786    5.7525   27.1055 O   0  0  0  0  0  0  0  0  0  0  0  0
   -8.0517    6.4083   27.2248 O   0  0  0  0  0  0  0  0  0  0  0  0
   -6.8048    0.1681   27.2614 C   0  0  0  0  0  0  0  0  0  0  0  0
   -7.3733   -0.8686   27.3030 N   0  0  0  0  0  0  0  0  0  0  0  0
   -5.4668    0.1210   27.2902 O   0  0  0  0  0  0  0  0  0  0  0  0
   -6.8408   -2.2300   27.4151 C   0  0  0  0  0  0  0  0  0  0  0  0
   -7.2474   -2.8801   28.0584 C   0  0  0  0  0  0  0  0  0  0  0  0
   -6.6538   -4.1596   28.4993 C   0  0  0  0  0  0  0  0  0  0  0  0
   -5.4881   -4.5079   27.8361 C   0  0  0  0  0  0  0  0  0  0  0  0
   -4.9566   -3.6056   26.9294 C   0  0  0  0  0  0  0  0  0  0  0  0
   -5.5456   -2.3616   26.7640 C   0  0  0  0  0  0  0  0  0  0  0  0
  2  7  1  0
  7  8  2  0
  7  9  1  0
  5 10  1  0
 10 11  1  0
 10 12  2  0
 11 13  1  0
 13 14  2  0
 14 15  1  0
 15 16  2  0
 16 17  1  0
 17 18  2  0
 18 13  1  0
  1  2  2  0
  2  3  1  0
  3  6  2  0
  6  5  1  0
  5  4  2  0
  4  1  1  0
M  END
$$$$
