No_9057-complexes_sdf/6BKW-FPZ/2024-09-17-14-21-01/
     RDKit          3D

 18 20  0  0  0  0  0  0  0  0999 V2000
   -7.7129    4.2099   27.0854 C   0  0  0  0  0  0  0  0  0  0  0  0
   -7.7814    5.1722   27.8972 C   0  0  0  0  0  0  0  0  0  0  0  0
   -8.8998    3.8713   26.3707 C   0  0  0  0  0  0  0  0  0  0  0  0
   -9.9938    4.6774   26.5446 C   0  0  0  0  0  0  0  0  0  0  0  0
   -8.7789    6.1536   27.9256 C   0  0  0  0  0  0  0  0  0  0  0  0
   -9.9428    5.8398   27.2296 C   0  0  0  0  0  0  0  0  0  0  0  0
   -8.9119    2.6447   25.5685 C   0  0  0  0  0  0  0  0  0  0  0  0
   -9.7323    2.5751   24.5467 N   0  0  0  0  0  0  0  0  0  0  0  0
   -9.7034    1.4552   23.7977 C   0  0  0  0  0  0  0  0  0  0  0  0
   -8.1806    1.5777   25.8871 C   0  0  0  0  0  0  0  0  0  0  0  0
   -8.1656    0.4090   25.1972 C   0  0  0  0  0  0  0  0  0  0  0  0
   -8.9715    0.3795   24.0727 C   0  0  0  0  0  0  0  0  0  0  0  0
  -10.5661    1.4595   22.6847 N   0  0  0  0  0  0  0  0  0  0  0  0
  -11.7578    1.4612   22.6771 C   0  0  0  0  0  0  0  0  0  0  0  0
  -12.4795    1.5286   21.4798 C   0  0  0  0  0  0  0  0  0  0  0  0
   -9.9012    1.4906   21.3614 C   0  0  0  0  0  0  0  0  0  0  0  0
  -11.8977    1.4750   20.3056 C   0  0  0  0  0  0  0  0  0  0  0  0
  -10.5176    1.4916   20.2827 N   0  0  0  0  0  0  0  0  0  0  0  0
  3  7  1  0
  9 13  1  0
 13 14  1  0
 13 16  1  0
 15 17  1  0
 16 18  1  0
 17 18  1  0
 14 15  1  0
  1  2  2  0
  2  5  1  0
  5  6  2  0
  6  4  1  0
  4  3  2  0
  3  1  1  0
  7  8  2  0
  8  9  1  0
  9 12  2  0
 12 11  1  0
 11 10  2  0
 10  7  1  0
M  END
$$$$
