No_9836-complexes_sdf/6BKW-FPZ/2024-09-17-14-21-01/
     RDKit          3D

 17 19  0  0  0  0  0  0  0  0999 V2000
   -7.9040    3.9820   27.1177 C   0  0  0  0  0  0  0  0  0  0  0  0
   -7.8663    4.8694   27.9238 C   0  0  0  0  0  0  0  0  0  0  0  0
   -9.0501    3.8017   26.2617 C   0  0  0  0  0  0  0  0  0  0  0  0
  -10.0189    4.7608   26.3707 C   0  0  0  0  0  0  0  0  0  0  0  0
   -8.6973    5.9722   27.8968 C   0  0  0  0  0  0  0  0  0  0  0  0
   -9.8216    5.8946   27.1241 C   0  0  0  0  0  0  0  0  0  0  0  0
   -9.1445    2.6271   25.4265 C   0  0  0  0  0  0  0  0  0  0  0  0
   -9.9972    2.7053   24.3067 C   0  0  0  0  0  0  0  0  0  0  0  0
  -10.6860    3.8998   24.0797 C   0  0  0  0  0  0  0  0  0  0  0  0
  -10.8825    4.8387   25.1671 C   0  0  0  0  0  0  0  0  0  0  0  0
  -11.6813    3.9037   22.9957 C   0  0  0  0  0  0  0  0  0  0  0  0
  -11.1556    3.7772   21.8354 C   0  0  0  0  0  0  0  0  0  0  0  0
   -9.7238    3.4828   21.6787 C   0  0  0  0  0  0  0  0  0  0  0  0
   -9.1398    2.5985   22.4058 C   0  0  0  0  0  0  0  0  0  0  0  0
   -8.9762    2.4246   23.4184 N   0  0  0  0  0  0  0  0  0  0  0  0
   -8.5395    1.1975   26.0455 Cl  0  0  0  0  0  0  0  0  0  0  0  0
   -7.0018    2.9635   27.2228 F   0  0  0  0  0  0  0  0  0  0  0  0
  9 11  1  0
 11 12  2  0
 12 13  1  0
 13 14  2  0
  8 15  1  0
 14 15  1  0
  7 16  1  0
  1 17  1  0
  4 10  2  0
 10  9  1  0
  9  8  2  0
  8  7  1  0
  7  3  2  0
  1  2  2  0
  2  5  1  0
  5  6  2  0
  6  4  1  0
  4  3  1  0
  3  1  1  0
M  END
$$$$
