No_92-complexes_sdf/6BKW-FPZ/2024-09-17-14-21-01/
     RDKit          3D

 17 18  0  0  0  0  0  0  0  0999 V2000
   -7.9040    3.9820   27.1177 C   0  0  0  0  0  0  0  0  0  0  0  0
   -8.2057    2.8231   26.8733 C   0  0  0  0  0  0  0  0  0  0  0  0
   -8.7695    5.0740   26.7916 C   0  0  0  0  0  0  0  0  0  0  0  0
   -8.4337    6.4678   27.0913 C   0  0  0  0  0  0  0  0  0  0  0  0
   -9.3742    2.4311   26.2346 C   0  0  0  0  0  0  0  0  0  0  0  0
  -10.2395    3.4267   25.8887 C   0  0  0  0  0  0  0  0  0  0  0  0
   -9.9567    4.7548   26.1374 C   0  0  0  0  0  0  0  0  0  0  0  0
   -7.9449    7.5014   26.9590 N   0  0  0  0  0  0  0  0  0  0  0  0
   -7.4536    1.5358   27.2327 C   0  0  0  0  0  0  0  0  0  0  0  0
   -7.8892    0.3626   27.1646 N   0  0  0  0  0  0  0  0  0  0  0  0
   -6.2180    1.7871   27.6930 O   0  0  0  0  0  0  0  0  0  0  0  0
   -7.1255   -0.8009   27.6140 C   0  0  0  0  0  0  0  0  0  0  0  0
   -7.8618   -1.7477   28.2539 C   0  0  0  0  0  0  0  0  0  0  0  0
   -7.3654   -2.3338   29.3746 C   0  0  0  0  0  0  0  0  0  0  0  0
   -5.9685   -2.2013   29.7061 C   0  0  0  0  0  0  0  0  0  0  0  0
   -5.2457   -1.2008   29.0229 C   0  0  0  0  0  0  0  0  0  0  0  0
   -5.8677   -0.4369   28.1233 C   0  0  0  0  0  0  0  0  0  0  0  0
  3  4  1  0
  4  8  3  0
  2  9  1  0
  9 10  1  0
  9 11  2  0
 10 12  1  0
 12 13  2  0
 13 14  1  0
 14 15  2  0
 15 16  1  0
 16 17  2  0
 17 12  1  0
  1  2  2  0
  2  5  1  0
  5  6  2  0
  6  7  1  0
  7  3  2  0
  3  1  1  0
M  END
$$$$
