No_9472-complexes_sdf/6BKW-FPZ/2024-09-17-14-21-01/
     RDKit          3D

 18 19  0  0  0  0  0  0  0  0999 V2000
   -7.9040    3.9820   27.1177 C   0  0  0  0  0  0  0  0  0  0  0  0
   -7.8663    4.8694   27.9238 C   0  0  0  0  0  0  0  0  0  0  0  0
   -9.0501    3.8017   26.2617 C   0  0  0  0  0  0  0  0  0  0  0  0
   -9.1826    2.7026   25.3575 C   0  0  0  0  0  0  0  0  0  0  0  0
   -8.6940    6.0131   27.8614 C   0  0  0  0  0  0  0  0  0  0  0  0
   -9.7382    4.9916   26.1006 C   0  0  0  0  0  0  0  0  0  0  0  0
   -9.6356    6.0254   26.9506 C   0  0  0  0  0  0  0  0  0  0  0  0
  -10.1305    2.7675   24.3605 C   0  0  0  0  0  0  0  0  0  0  0  0
  -11.2453    2.4384   24.4159 C   0  0  0  0  0  0  0  0  0  0  0  0
  -11.7539    1.7609   25.5829 C   0  0  0  0  0  0  0  0  0  0  0  0
  -12.4027    0.7615   25.6601 C   0  0  0  0  0  0  0  0  0  0  0  0
  -12.6550    0.1174   26.5919 C   0  0  0  0  0  0  0  0  0  0  0  0
  -12.2501    0.5585   27.9803 C   0  0  0  0  0  0  0  0  0  0  0  0
  -11.4514    1.6845   27.9909 C   0  0  0  0  0  0  0  0  0  0  0  0
  -11.1532    2.3033   26.8727 C   0  0  0  0  0  0  0  0  0  0  0  0
  -12.2894    2.6576   23.3910 C   0  0  0  0  0  0  0  0  0  0  0  0
  -12.2699    1.7801   22.3210 C   0  0  0  0  0  0  0  0  0  0  0  0
  -13.2419    1.9556   21.3021 C   0  0  0  0  0  0  0  0  0  0  0  0
  3  4  1  0
  4  8  2  3
  8  9  1  0
  9 10  1  0
  9 16  1  0
 16 17  2  3
 17 18  1  0
 10 11  2  0
 11 12  1  0
 12 13  2  0
 13 14  1  0
 14 15  2  0
 15 10  1  0
  1  2  2  0
  2  5  1  0
  5  7  2  0
  7  6  1  0
  6  3  2  0
  3  1  1  0
M  END
$$$$
