No_992-complexes_sdf/6BKW-FPZ/2024-09-17-14-21-01/
     RDKit          3D

 25 27  0  0  0  0  0  0  0  0999 V2000
   -7.9040    3.9820   27.1177 C   0  0  0  0  0  0  0  0  0  0  0  0
   -8.2057    2.8231   26.8733 C   0  0  0  0  0  0  0  0  0  0  0  0
   -8.7695    5.0740   26.7916 C   0  0  0  0  0  0  0  0  0  0  0  0
   -8.4337    6.4678   27.0913 C   0  0  0  0  0  0  0  0  0  0  0  0
   -9.3742    2.4311   26.2346 C   0  0  0  0  0  0  0  0  0  0  0  0
  -10.2395    3.4267   25.8887 C   0  0  0  0  0  0  0  0  0  0  0  0
   -9.9567    4.7548   26.1374 C   0  0  0  0  0  0  0  0  0  0  0  0
   -7.9449    7.5014   26.9590 N   0  0  0  0  0  0  0  0  0  0  0  0
   -7.0833    1.8146   27.3712 C   0  0  0  0  0  0  0  0  0  0  0  0
   -7.3577    0.5069   27.4438 N   0  0  0  0  0  0  0  0  0  0  0  0
   -8.4910   -0.0205   27.4045 C   0  0  0  0  0  0  0  0  0  0  0  0
   -6.0322    2.3252   27.8508 O   0  0  0  0  0  0  0  0  0  0  0  0
   -8.6025   -1.3943   27.9067 C   0  0  0  0  0  0  0  0  0  0  0  0
   -7.4372   -1.9179   28.3521 C   0  0  0  0  0  0  0  0  0  0  0  0
   -6.4609   -0.3990   28.0962 C   0  0  1  0  0  0  0  0  0  0  0  0
   -9.7972   -2.1888   27.8713 C   0  0  0  0  0  0  0  0  0  0  0  0
   -9.9718   -3.1023   27.4642 N   0  0  0  0  0  0  0  0  0  0  0  0
  -10.8848   -1.6345   28.8222 C   0  0  0  0  0  0  0  0  0  0  0  0
  -12.0913   -2.2880   28.8837 C   0  0  0  0  0  0  0  0  0  0  0  0
  -11.1533   -3.9004   27.4295 C   0  0  0  0  0  0  0  0  0  0  0  0
  -12.1984   -3.4215   28.2193 N   0  0  0  0  0  0  0  0  0  0  0  0
  -11.3119   -5.3274   26.6576 Cl  0  0  0  0  0  0  0  0  0  0  0  0
   -5.1222   -0.4190   28.3874 C   0  0  0  0  0  0  0  0  0  0  0  0
   -4.1991    0.0388   27.4891 C   0  0  0  0  0  0  0  0  0  0  0  0
   -2.7988    0.1727   27.8453 C   0  0  0  0  0  0  0  0  0  0  0  0
  3  4  1  0
  4  8  3  0
  2  9  1  0
  9 10  1  0
 10 11  1  0
  9 12  2  0
 11 13  2  0
 13 14  1  0
 10 15  1  0
 15 14  1  6
 13 16  1  0
 20 22  1  0
 15 23  1  0
 23 24  2  3
 24 25  1  0
 16 17  2  0
 17 20  1  0
 20 21  2  0
 21 19  1  0
 19 18  2  0
 18 16  1  0
  1  2  2  0
  2  5  1  0
  5  6  2  0
  6  7  1  0
  7  3  2  0
  3  1  1  0
M  END
$$$$
