No_9568-complexes_sdf/6BKW-FPZ/2024-09-17-14-21-01/
     RDKit          3D

 10 10  0  0  0  0  0  0  0  0999 V2000
   -7.9040    3.9820   27.1177 C   0  0  0  0  0  0  0  0  0  0  0  0
   -9.0711    4.3164   27.0630 C   0  0  0  0  0  0  0  0  0  0  0  0
  -10.1653    4.5748   26.8816 C   0  0  0  0  0  0  0  0  0  0  0  0
   -6.7944    4.3977   27.8518 C   0  0  0  0  0  0  0  0  0  0  0  0
  -11.3438    4.2250   26.9700 C   0  0  0  0  0  0  0  0  0  0  0  0
  -11.9317    3.0871   26.9791 C   0  0  0  0  0  0  0  0  0  0  0  0
  -13.2629    2.7682   27.3697 C   0  0  0  0  0  0  0  0  0  0  0  0
  -14.0531    3.8050   27.7087 C   0  0  0  0  0  0  0  0  0  0  0  0
  -13.6284    5.1196   27.7059 C   0  0  0  0  0  0  0  0  0  0  0  0
  -12.3239    5.3920   27.4903 C   0  0  0  0  0  0  0  0  0  0  0  0
  1  2  3  0
  2  3  1  0
  1  4  1  0
  3  5  1  0
  5  6  2  0
  6  7  1  0
  7  8  2  0
  8  9  1  0
  9 10  2  0
 10  5  1  0
M  END
$$$$
