No_9363-complexes_sdf/6BKW-FPZ/2024-09-17-14-21-01/
     RDKit          3D

 35 39  0  0  0  0  0  0  0  0999 V2000
   -7.9040    3.9820   27.1177 C   0  0  0  0  0  0  0  0  0  0  0  0
   -7.8663    4.8694   27.9238 C   0  0  0  0  0  0  0  0  0  0  0  0
   -9.0953    3.1697   27.0532 C   0  0  0  0  0  0  0  0  0  0  0  0
  -10.1313    3.4052   27.8871 C   0  0  0  0  0  0  0  0  0  0  0  0
   -8.9489    5.3814   28.6671 C   0  0  0  0  0  0  0  0  0  0  0  0
  -10.1039    4.5714   28.7102 C   0  0  0  0  0  0  0  0  0  0  0  0
   -9.0505    1.9437   26.1963 C   0  0  0  0  0  0  0  0  0  0  0  0
   -9.5005    2.1052   24.8742 C   0  0  0  0  0  0  0  0  0  0  0  0
   -9.4919    1.0870   23.9344 C   0  0  0  0  0  0  0  0  0  0  0  0
   -8.5089    0.7561   26.5738 C   0  0  0  0  0  0  0  0  0  0  0  0
   -8.4570   -0.3334   25.6792 C   0  0  0  0  0  0  0  0  0  0  0  0
   -8.9264   -0.1459   24.3811 C   0  0  0  0  0  0  0  0  0  0  0  0
  -10.0092    3.4420   24.3569 C   0  0  0  0  0  0  0  0  0  0  0  0
   -9.9997    4.5839   25.1450 C   0  0  0  0  0  0  0  0  0  0  0  0
  -10.5915    3.3781   23.0596 C   0  0  0  0  0  0  0  0  0  0  0  0
  -10.6189    2.4045   22.2077 C   0  0  0  0  0  0  0  0  0  0  0  0
   -9.9632    1.1373   22.6431 C   0  0  0  0  0  0  0  0  0  0  0  0
  -11.3629    2.6410   27.9145 C   0  0  0  0  0  0  0  0  0  0  0  0
  -12.2623    2.8343   28.8251 N   0  0  0  0  0  0  0  0  0  0  0  0
  -12.9732    3.6360   28.9575 C   0  0  0  0  0  0  0  0  0  0  0  0
  -14.3289    3.4412   28.8968 C   0  0  0  0  0  0  0  0  0  0  0  0
  -14.8860    2.4868   28.8307 C   0  0  0  0  0  0  0  0  0  0  0  0
  -12.6039    1.6211   29.6127 C   0  0  0  0  0  0  0  0  0  0  0  0
  -14.0377    1.2854   29.3208 C   0  0  1  0  0  0  0  0  0  0  0  0
  -14.5222   -0.0387   29.5999 C   0  0  0  0  0  0  0  0  0  0  0  0
  -14.7089   -0.5088   30.5748 O   0  0  0  0  0  0  0  0  0  0  0  0
  -14.6186   -0.7303   28.4059 O   0  0  0  0  0  0  0  0  0  0  0  0
  -11.3515    1.5920   27.1910 O   0  0  0  0  0  0  0  0  0  0  0  0
  -14.1044   -1.8118   28.2258 C   0  0  0  0  0  0  0  0  0  0  0  0
  -13.4866   -1.9966   27.1482 C   0  0  0  0  0  0  0  0  0  0  0  0
  -12.6866   -3.1997   26.9035 C   0  0  0  0  0  0  0  0  0  0  0  0
  -11.9138   -3.3752   25.7082 C   0  0  0  0  0  0  0  0  0  0  0  0
  -12.0077   -2.3990   24.6976 C   0  0  0  0  0  0  0  0  0  0  0  0
  -12.7339   -1.2291   24.8732 C   0  0  0  0  0  0  0  0  0  0  0  0
  -13.4050   -1.0369   26.1021 C   0  0  0  0  0  0  0  0  0  0  0  0
  3  7  1  0
 13 14  1  0
  4 18  1  0
 18 19  1  0
 19 20  1  0
 21 22  1  0
 19 23  1  0
 22 24  1  0
 23 24  1  0
 24 25  1  1
 25 26  2  0
 25 27  1  0
 18 28  2  0
 27 29  1  0
 29 30  1  0
 20 21  1  0
 30 31  2  0
 31 32  1  0
 32 33  2  0
 33 34  1  0
 34 35  2  0
 35 30  1  0
  7  8  2  0
  9 12  2  0
 12 11  1  0
 11 10  2  0
 10  7  1  0
  8  9  1  0
  9 17  1  0
 17 16  2  0
 16 15  1  0
 15 13  2  0
 13  8  1  0
  1  2  2  0
  2  5  1  0
  5  6  2  0
  6  4  1  0
  4  3  2  0
  3  1  1  0
M  END
$$$$
