No_9357-complexes_sdf/6BKW-FPZ/2024-09-17-14-21-01/
     RDKit          3D

 27 29  0  0  0  0  0  0  0  0999 V2000
   -7.9040    3.9820   27.1177 C   0  0  0  0  0  0  0  0  0  0  0  0
   -8.2057    2.8231   26.8733 C   0  0  0  0  0  0  0  0  0  0  0  0
   -8.7695    5.0740   26.7916 C   0  0  0  0  0  0  0  0  0  0  0  0
   -9.9618    4.7598   26.1630 C   0  0  0  0  0  0  0  0  0  0  0  0
   -9.4200    2.4524   26.2849 C   0  0  0  0  0  0  0  0  0  0  0  0
  -10.2590    3.4815   25.9250 C   0  0  0  0  0  0  0  0  0  0  0  0
   -8.3840    6.4693   27.0829 C   0  0  0  0  0  0  0  0  0  0  0  0
   -7.3884    6.7399   26.7883 F   0  0  0  0  0  0  0  0  0  0  0  0
   -8.7313    6.6911   28.4751 F   0  0  0  0  0  0  0  0  0  0  0  0
   -9.2822    7.3523   26.5058 F   0  0  0  0  0  0  0  0  0  0  0  0
   -7.2644    1.6884   27.3029 C   0  0  0  0  0  0  0  0  0  0  0  0
   -7.6181    0.3145   27.2451 C   0  0  0  0  0  0  0  0  0  0  0  0
   -6.7083   -0.6261   27.6534 C   0  0  0  0  0  0  0  0  0  0  0  0
   -5.4106   -0.2022   28.0870 C   0  0  0  0  0  0  0  0  0  0  0  0
   -5.0764    1.1485   28.0946 C   0  0  0  0  0  0  0  0  0  0  0  0
   -5.9201    2.0523   27.7220 C   0  0  0  0  0  0  0  0  0  0  0  0
   -4.4550   -1.2495   28.5823 C   0  0  2  0  0  0  0  0  0  0  0  0
   -4.5247   -1.7839   29.6620 C   0  0  0  0  0  0  0  0  0  0  0  0
   -3.5484   -2.6411   30.1854 C   0  0  0  0  0  0  0  0  0  0  0  0
   -3.5654   -3.2205   31.5196 C   0  0  0  0  0  0  0  0  0  0  0  0
   -4.6674   -2.8881   32.3483 C   0  0  0  0  0  0  0  0  0  0  0  0
   -5.6553   -2.0033   31.9134 C   0  0  0  0  0  0  0  0  0  0  0  0
   -5.5947   -1.4100   30.6772 C   0  0  0  0  0  0  0  0  0  0  0  0
   -3.4180   -1.4464   27.6028 C   0  0  0  0  0  0  0  0  0  0  0  0
   -3.4486   -2.5525   26.8039 C   0  0  0  0  0  0  0  0  0  0  0  0
   -2.3798   -2.6597   25.8647 C   0  0  0  0  0  0  0  0  0  0  0  0
   -1.3447   -1.7377   25.8223 C   0  0  0  0  0  0  0  0  0  0  0  0
  3  7  1  0
  7  8  1  0
  7  9  1  0
  7 10  1  0
  2 11  1  0
 17 14  1  1
 17 18  1  0
 17 24  1  0
 24 25  2  3
 25 26  1  0
 26 27  2  0
 18 19  2  0
 19 20  1  0
 20 21  2  0
 21 22  1  0
 22 23  2  0
 23 18  1  0
 11 12  2  0
 12 13  1  0
 13 14  2  0
 14 15  1  0
 15 16  2  0
 16 11  1  0
  1  2  2  0
  2  5  1  0
  5  6  2  0
  6  4  1  0
  4  3  2  0
  3  1  1  0
M  END
$$$$
