No_974-complexes_sdf/6BKW-FPZ/2024-09-17-14-21-01/
     RDKit          3D

 15 16  0  0  0  0  0  0  0  0999 V2000
   -7.7129    4.2099   27.0854 C   0  0  0  0  0  0  0  0  0  0  0  0
   -8.9133    4.4736   27.0998 C   0  0  0  0  0  0  0  0  0  0  0  0
   -9.4643    5.5426   27.7628 C   0  0  0  0  0  0  0  0  0  0  0  0
   -6.8373    4.9942   27.9785 C   0  0  0  0  0  0  0  0  0  0  0  0
   -7.3932    6.0303   28.6784 C   0  0  0  0  0  0  0  0  0  0  0  0
   -8.7122    6.3429   28.5485 C   0  0  0  0  0  0  0  0  0  0  0  0
   -9.7990    3.6123   26.2052 C   0  0  0  0  0  0  0  0  0  0  0  0
  -10.7050    2.7984   26.6430 C   0  0  0  0  0  0  0  0  0  0  0  0
  -11.0003    2.5408   27.7925 C   0  0  0  0  0  0  0  0  0  0  0  0
  -11.8742    1.5050   28.3683 C   0  0  0  0  0  0  0  0  0  0  0  0
  -12.4017    0.6606   27.4494 C   0  0  0  0  0  0  0  0  0  0  0  0
  -12.1674    0.8238   26.1420 C   0  0  0  0  0  0  0  0  0  0  0  0
  -11.3096    1.8124   25.6989 C   0  0  0  0  0  0  0  0  0  0  0  0
   -9.7013    3.9492   24.7749 C   0  0  0  0  0  0  0  0  0  0  0  0
   -9.0940    4.9803   24.4504 F   0  0  0  0  0  0  0  0  0  0  0  0
  2  7  1  0
  7  8  1  0
  7 14  1  0
 14 15  1  0
  1  2  2  0
  2  3  1  0
  3  6  2  0
  6  5  1  0
  5  4  2  0
  4  1  1  0
  8  9  2  0
  9 10  1  0
 10 11  2  0
 11 12  1  0
 12 13  2  0
 13  8  1  0
M  END
$$$$
