No_9262-complexes_sdf/6BKW-FPZ/2024-09-17-14-21-01/
     RDKit          3D

 12 12  0  0  0  0  0  0  0  0999 V2000
   -7.7129    4.2099   27.0854 C   0  0  0  0  0  0  0  0  0  0  0  0
   -8.2112    3.0637   26.9225 C   0  0  0  0  0  0  0  0  0  0  0  0
   -8.5108    5.3904   26.9436 C   0  0  0  0  0  0  0  0  0  0  0  0
   -9.7256    5.1955   26.3518 C   0  0  0  0  0  0  0  0  0  0  0  0
   -9.4995    2.8258   26.4878 C   0  0  0  0  0  0  0  0  0  0  0  0
  -10.2542    3.9691   26.2055 C   0  0  0  0  0  0  0  0  0  0  0  0
   -7.9468    6.6176   27.1669 N   0  0  0  0  0  0  0  0  0  0  0  0
   -7.3610    1.8234   27.2472 C   0  0  2  0  0  0  0  0  0  0  0  0
   -5.8741    2.1034   27.9135 Cl  0  0  0  0  0  0  0  0  0  0  0  0
   -7.7370    0.5253   26.9562 C   0  0  0  0  0  0  0  0  0  0  0  0
   -8.7540   -0.0211   27.1776 C   0  0  0  0  0  0  0  0  0  0  0  0
   -9.0586   -1.4058   26.9610 C   0  0  0  0  0  0  0  0  0  0  0  0
  3  7  1  0
  2  8  1  0
  8  9  1  6
  8 10  1  0
 10 11  2  3
 11 12  1  0
  1  2  2  0
  2  5  1  0
  5  6  2  0
  6  4  1  0
  4  3  2  0
  3  1  1  0
M  END
$$$$
