No_9187-complexes_sdf/6BKW-FPZ/2024-09-17-14-21-01/
     RDKit          3D

 25 28  0  0  0  0  0  0  0  0999 V2000
   -7.9040    3.9820   27.1177 C   0  0  0  0  0  0  0  0  0  0  0  0
   -7.8663    4.8694   27.9238 C   0  0  0  0  0  0  0  0  0  0  0  0
   -9.0491    3.8523   26.2542 C   0  0  0  0  0  0  0  0  0  0  0  0
   -8.7661    5.9491   27.9690 C   0  0  0  0  0  0  0  0  0  0  0  0
   -9.9295    4.8502   26.2323 C   0  0  0  0  0  0  0  0  0  0  0  0
   -9.8077    5.9288   27.0933 C   0  0  0  0  0  0  0  0  0  0  0  0
   -7.0120    2.8934   27.1746 N   0  0  0  0  0  0  0  0  0  0  0  0
   -7.2911    1.5905   26.8161 C   0  0  0  0  0  0  0  0  0  0  0  0
   -8.5086    1.1698   26.4079 C   0  0  0  0  0  0  0  0  0  0  0  0
   -9.3950    2.4994   25.7186 C   0  0  0  0  0  0  0  0  0  0  0  0
   -6.4674    0.6340   27.2883 N   0  0  0  0  0  0  0  0  0  0  0  0
   -6.6174   -0.7062   27.1812 C   0  0  0  0  0  0  0  0  0  0  0  0
   -5.6700   -1.5748   27.5778 C   0  0  0  0  0  0  0  0  0  0  0  0
   -5.1932    0.9686   27.8637 C   0  0  0  0  0  0  0  0  0  0  0  0
   -4.2055    0.1688   28.3390 C   0  0  0  0  0  0  0  0  0  0  0  0
   -4.4455   -1.1583   28.2290 C   0  0  0  0  0  0  0  0  0  0  0  0
  -10.2565    2.2307   24.7431 C   0  0  0  0  0  0  0  0  0  0  0  0
  -11.4253    2.6254   24.6818 C   0  0  0  0  0  0  0  0  0  0  0  0
  -12.0788    3.2864   25.8104 C   0  0  0  0  0  0  0  0  0  0  0  0
  -13.5723    3.5095   25.7145 C   0  0  0  0  0  0  0  0  0  0  0  0
  -14.1590    3.8414   26.9666 C   0  0  0  0  0  0  0  0  0  0  0  0
  -13.3851    4.1434   28.1209 C   0  0  0  0  0  0  0  0  0  0  0  0
  -12.0256    3.9075   28.1320 C   0  0  0  0  0  0  0  0  0  0  0  0
  -11.4441    3.4521   27.0853 C   0  0  0  0  0  0  0  0  0  0  0  0
   -9.7478    5.4472   24.8611 O   0  0  0  0  0  0  0  0  0  0  0  0
  8 11  1  0
 11 12  1  0
 11 14  1  0
 13 16  1  0
 15 16  1  0
 10 17  1  0
 17 18  2  3
 18 19  1  0
  5 25  1  0
 12 13  1  0
 15 14  1  0
 19 20  2  0
 20 21  1  0
 21 22  2  0
 22 23  1  0
 23 24  2  0
 24 19  1  0
  1  2  2  0
  2  4  1  0
  4  6  2  0
  6  5  1  0
  5  3  2  0
  1  3  1  0
  3 10  1  0
 10  9  2  0
  9  8  1  0
  8  7  2  0
  7  1  1  0
M  END
$$$$
