No_9672-complexes_sdf/6BKW-FPZ/2024-09-17-14-21-01/
     RDKit          3D

 16 17  0  0  0  0  0  0  0  0999 V2000
   -7.7129    4.2099   27.0854 C   0  0  0  0  0  0  0  0  0  0  0  0
   -8.2112    3.0637   26.9225 C   0  0  0  0  0  0  0  0  0  0  0  0
   -9.4446    2.8304   26.1868 C   0  0  0  0  0  0  0  0  0  0  0  0
   -8.4697    5.3956   26.7238 C   0  0  0  0  0  0  0  0  0  0  0  0
   -9.6172    5.2111   25.9513 C   0  0  0  0  0  0  0  0  0  0  0  0
  -10.0424    3.9782   25.6873 C   0  0  0  0  0  0  0  0  0  0  0  0
   -7.8256    6.9333   27.0525 Cl  0  0  0  0  0  0  0  0  0  0  0  0
   -7.5378    1.9230   27.3755 N   0  0  0  0  0  0  0  0  0  0  0  0
   -6.1985    1.9965   27.6669 C   0  0  0  0  0  0  0  0  0  0  0  0
   -5.5702    0.7246   28.1206 C   0  0  0  0  0  0  0  0  0  0  0  0
   -6.3666   -0.3602   28.0459 C   0  0  0  0  0  0  0  0  0  0  0  0
   -7.8769    0.5385   27.4280 C   0  0  0  0  0  0  0  0  0  0  0  0
   -4.1707    0.6156   28.5495 C   0  0  1  0  0  0  0  0  0  0  0  0
   -3.7288   -0.0273   29.9691 Cl  0  0  0  0  0  0  0  0  0  0  0  0
   -3.1301    0.9602   27.5886 C   0  0  0  0  0  0  0  0  0  0  0  0
   -2.8321    0.2299   26.8674 O   0  0  0  0  0  0  0  0  0  0  0  0
  4  7  1  0
  2  8  1  0
  8  9  1  0
  9 10  2  0
 10 11  1  0
  8 12  1  0
 11 12  2  0
 10 13  1  0
 13 14  1  6
 13 15  1  0
 15 16  2  0
  1  2  2  0
  2  3  1  0
  3  6  2  0
  6  5  1  0
  5  4  2  0
  4  1  1  0
M  END
$$$$
