No_9080-complexes_sdf/6BKW-FPZ/2024-09-17-14-21-01/
     RDKit          3D

 21 23  0  0  0  0  0  0  0  0999 V2000
   -7.9040    3.9820   27.1177 C   0  0  0  0  0  0  0  0  0  0  0  0
   -9.0711    4.3164   27.0630 C   0  0  0  0  0  0  0  0  0  0  0  0
   -9.5294    5.4517   27.7215 C   0  0  0  0  0  0  0  0  0  0  0  0
   -7.4336    2.7132   26.5681 C   0  0  0  0  0  0  0  0  0  0  0  0
   -8.3353    1.8569   26.0442 C   0  0  0  0  0  0  0  0  0  0  0  0
   -9.6477    2.2853   25.9146 C   0  0  0  0  0  0  0  0  0  0  0  0
  -10.0346    3.4497   26.4483 C   0  0  2  0  0  0  0  0  0  0  0  0
   -7.8750    0.5509   25.5918 C   0  0  0  0  0  0  0  0  0  0  0  0
   -6.9702    0.0164   26.1017 O   0  0  0  0  0  0  0  0  0  0  0  0
   -8.4198    0.1206   24.4519 O   0  0  0  0  0  0  0  0  0  0  0  0
   -7.0675    4.7874   27.9154 N   0  0  0  0  0  0  0  0  0  0  0  0
   -7.3863    5.9269   28.4657 C   0  0  0  0  0  0  0  0  0  0  0  0
   -8.6300    6.2928   28.3257 N   0  0  0  0  0  0  0  0  0  0  0  0
  -11.4247    3.8667   26.1695 C   0  0  0  0  0  0  0  0  0  0  0  0
  -12.3043    3.7002   27.2518 C   0  0  0  0  0  0  0  0  0  0  0  0
  -12.9594    2.6725   27.4195 C   0  0  0  0  0  0  0  0  0  0  0  0
  -13.8172    2.4499   28.6266 C   0  0  0  0  0  0  0  0  0  0  0  0
  -13.9750    3.4965   29.5459 C   0  0  0  0  0  0  0  0  0  0  0  0
  -13.3431    4.7319   29.2269 C   0  0  0  0  0  0  0  0  0  0  0  0
  -12.5431    4.8658   28.1725 C   0  0  0  0  0  0  0  0  0  0  0  0
  -11.8043    4.2890   25.0782 O   0  0  0  0  0  0  0  0  0  0  0  0
  1  4  1  0
  4  5  1  0
  5  6  1  0
  2  7  1  0
  6  7  1  0
  5  8  1  0
  8  9  2  0
  8 10  1  0
  7 14  1  6
 14 15  1  0
 14 21  2  0
 15 16  2  0
 16 17  1  0
 17 18  2  0
 18 19  1  0
 19 20  2  0
 20 15  1  0
  1  2  1  0
  2  3  2  0
  3 13  1  0
 13 12  2  0
 12 11  1  0
 11  1  2  0
M  END
$$$$
