No_906-complexes_sdf/6BKW-FPZ/2024-09-17-14-21-01/
     RDKit          3D

 12 12  0  0  0  0  0  0  0  0999 V2000
   -7.7129    4.2099   27.0854 C   0  0  0  0  0  0  0  0  0  0  0  0
   -8.2112    3.0637   26.9225 C   0  0  0  0  0  0  0  0  0  0  0  0
   -9.4446    2.8304   26.1868 C   0  0  0  0  0  0  0  0  0  0  0  0
   -8.4697    5.3956   26.7238 C   0  0  0  0  0  0  0  0  0  0  0  0
   -9.6172    5.2111   25.9513 C   0  0  0  0  0  0  0  0  0  0  0  0
  -10.0424    3.9782   25.6873 C   0  0  0  0  0  0  0  0  0  0  0  0
   -8.1318    6.7643   27.0481 C   0  0  0  0  0  0  0  0  0  0  0  0
   -7.2521    6.8182   27.9923 F   0  0  0  0  0  0  0  0  0  0  0  0
   -9.1574    7.4723   27.5669 F   0  0  0  0  0  0  0  0  0  0  0  0
   -7.5411    7.4812   26.0367 F   0  0  0  0  0  0  0  0  0  0  0  0
   -7.6833    1.7341   27.3583 C   0  0  0  0  0  0  0  0  0  0  0  0
   -7.5390    0.4474   26.5779 Br  0  0  0  0  0  0  0  0  0  0  0  0
  4  7  1  0
  7  8  1  0
  7  9  1  0
  7 10  1  0
  2 11  1  0
 11 12  1  0
  1  2  2  0
  2  3  1  0
  3  6  2  0
  6  5  1  0
  5  4  2  0
  4  1  1  0
M  END
$$$$
