No_907-complexes_sdf/6BKW-FPZ/2024-09-17-14-21-01/
     RDKit          3D

 18 20  0  0  0  0  0  0  0  0999 V2000
   -7.9040    3.9820   27.1177 C   0  0  0  0  0  0  0  0  0  0  0  0
   -8.2057    2.8231   26.8733 C   0  0  0  0  0  0  0  0  0  0  0  0
   -8.7695    5.0740   26.7916 C   0  0  0  0  0  0  0  0  0  0  0  0
   -9.9618    4.7598   26.1630 C   0  0  0  0  0  0  0  0  0  0  0  0
   -9.4200    2.4524   26.2849 C   0  0  0  0  0  0  0  0  0  0  0  0
  -10.2590    3.4815   25.9250 C   0  0  0  0  0  0  0  0  0  0  0  0
   -8.4259    6.3307   27.0704 F   0  0  0  0  0  0  0  0  0  0  0  0
   -7.2639    1.6678   27.2836 C   0  0  0  0  0  0  0  0  0  0  0  0
   -6.0282    1.9876   27.8531 C   0  0  0  0  0  0  0  0  0  0  0  0
   -5.1473    0.9009   28.2002 C   0  0  0  0  0  0  0  0  0  0  0  0
   -5.5332   -0.3724   28.0647 C   0  0  0  0  0  0  0  0  0  0  0  0
   -7.3584    0.2610   27.2437 C   0  0  0  0  0  0  0  0  0  0  0  0
   -6.7071   -0.6544   27.6065 C   0  0  0  0  0  0  0  0  0  0  0  0
   -4.5506   -1.3892   28.6158 C   0  0  0  0  0  0  0  0  0  0  0  0
   -3.4236   -1.3408   28.4345 C   0  0  0  0  0  0  0  0  0  0  0  0
   -2.6948   -0.4637   27.5668 C   0  0  0  0  0  0  0  0  0  0  0  0
   -3.2834    0.4552   26.8383 C   0  0  0  0  0  0  0  0  0  0  0  0
   -4.0875    1.4248   27.4692 C   0  0  0  0  0  0  0  0  0  0  0  0
  3  7  1  0
  2  8  1  0
 11 14  1  0
 14 15  2  0
 15 16  1  0
 16 17  1  0
 10 18  1  0
 17 18  1  0
  1  2  2  0
  2  5  1  0
  5  6  2  0
  6  4  1  0
  4  3  2  0
  3  1  1  0
  8  9  2  0
  9 10  1  0
 10 11  2  0
 11 13  1  0
 13 12  2  0
 12  8  1  0
M  END
$$$$
