No_9490-complexes_sdf/6BKW-FPZ/2024-09-17-14-21-01/
     RDKit          3D

 20 21  0  0  0  0  0  0  0  0999 V2000
   -7.2496    3.8871   27.4508 C   0  0  0  0  0  0  0  0  0  0  0  0
   -7.9379    4.9063   27.8518 C   0  0  0  0  0  0  0  0  0  0  0  0
   -9.3376    4.8647   27.7795 C   0  0  0  0  0  0  0  0  0  0  0  0
   -7.8544    2.6294   27.0414 C   0  0  0  0  0  0  0  0  0  0  0  0
   -9.2665    2.6175   27.0340 C   0  0  0  0  0  0  0  0  0  0  0  0
   -9.9836    3.7042   27.4150 C   0  0  0  0  0  0  0  0  0  0  0  0
   -9.9053    1.3367   26.6546 C   0  0  0  0  0  0  0  0  0  0  0  0
  -10.5453    0.7121   27.6210 C   0  0  0  0  0  0  0  0  0  0  0  0
   -9.7477    0.8420   25.3866 C   0  0  0  0  0  0  0  0  0  0  0  0
   -9.2215    1.6039   24.4214 C   0  0  0  0  0  0  0  0  0  0  0  0
  -10.5910   -0.6711   27.7831 C   0  0  0  0  0  0  0  0  0  0  0  0
  -10.4312   -1.3184   26.5272 C   0  0  0  0  0  0  0  0  0  0  0  0
  -10.0253   -0.5977   25.2484 C   0  0  0  0  0  0  0  0  0  0  0  0
   -7.3334    6.0756   28.1765 O   0  0  0  0  0  0  0  0  0  0  0  0
  -11.4358    3.8575   27.3024 C   0  0  0  0  0  0  0  0  0  0  0  0
  -12.2058    4.0399   28.4287 C   0  0  0  0  0  0  0  0  0  0  0  0
  -13.6153    4.2190   28.3991 C   0  0  0  0  0  0  0  0  0  0  0  0
  -14.3322    4.4530   29.5991 C   0  0  0  0  0  0  0  0  0  0  0  0
  -14.4352    3.7790   30.4527 C   0  0  0  0  0  0  0  0  0  0  0  0
  -13.0741    3.0174   30.7319 C   0  0  0  0  0  0  0  0  0  0  0  0
  5  7  1  0
  9 10  1  0
  2 14  1  0
  6 15  1  0
 15 16  2  3
 16 17  1  0
 17 18  1  0
 18 19  2  3
 19 20  1  0
  1  2  2  0
  2  3  1  0
  3  6  2  0
  6  5  1  0
  5  4  2  0
  4  1  1  0
  7  8  2  0
  8 11  1  0
 11 12  2  0
 12 13  1  0
 13  9  2  0
  9  7  1  0
M  END
$$$$
