No_9126-complexes_sdf/6BKW-FPZ/2024-09-17-14-21-01/
     RDKit          3D

 12 13  0  0  0  0  0  0  0  0999 V2000
   -7.9040    3.9820   27.1177 C   0  0  0  0  0  0  0  0  0  0  0  0
   -7.8663    4.8694   27.9238 C   0  0  0  0  0  0  0  0  0  0  0  0
   -9.0491    3.8523   26.2542 C   0  0  0  0  0  0  0  0  0  0  0  0
   -8.7661    5.9491   27.9690 C   0  0  0  0  0  0  0  0  0  0  0  0
   -9.9279    4.8544   26.1938 C   0  0  0  0  0  0  0  0  0  0  0  0
   -9.8044    5.9413   27.0782 C   0  0  0  0  0  0  0  0  0  0  0  0
   -9.0689    2.7042   25.3035 C   0  0  0  0  0  0  0  0  0  0  0  0
  -10.0575    2.7179   24.3171 C   0  0  0  0  0  0  0  0  0  0  0  0
  -10.3895    1.5744   23.6813 C   0  0  0  0  0  0  0  0  0  0  0  0
   -9.4972    0.4182   23.8626 C   0  0  0  0  0  0  0  0  0  0  0  0
   -8.4494    1.4519   25.5721 C   0  0  0  0  0  0  0  0  0  0  0  0
   -8.6251    0.3687   24.8643 C   0  0  0  0  0  0  0  0  0  0  0  0
  3  7  1  0
  7  8  2  0
  8  9  1  0
  9 10  2  0
 10 12  1  0
 12 11  2  0
 11  7  1  0
  1  2  2  0
  2  4  1  0
  4  6  2  0
  6  5  1  0
  5  3  2  0
  3  1  1  0
M  END
$$$$
