No_9245-complexes_sdf/6BKW-FPZ/2024-09-17-14-21-01/
     RDKit          3D

 26 30  0  0  0  0  0  0  0  0999 V2000
   -7.9040    3.9820   27.1177 C   0  0  0  0  0  0  0  0  0  0  0  0
   -9.0711    4.3164   27.0630 C   0  0  0  0  0  0  0  0  0  0  0  0
   -9.5294    5.4517   27.7215 C   0  0  0  0  0  0  0  0  0  0  0  0
   -9.9845    3.5634   26.2189 C   0  0  0  0  0  0  0  0  0  0  0  0
   -9.6295    2.5733   25.6121 C   0  0  0  0  0  0  0  0  0  0  0  0
   -6.9226    4.6383   28.0851 C   0  0  0  0  0  0  0  0  0  0  0  0
  -10.4039    2.0007   24.5778 C   0  0  0  0  0  0  0  0  0  0  0  0
  -11.5787    2.6712   24.2387 C   0  0  0  0  0  0  0  0  0  0  0  0
  -11.9600    3.8417   24.8449 C   0  0  0  0  0  0  0  0  0  0  0  0
  -11.1706    4.4152   25.7823 C   0  0  0  0  0  0  0  0  0  0  0  0
   -8.6220    6.2950   28.5507 C   0  0  0  0  0  0  0  0  0  0  0  0
   -7.3515    5.6948   28.6836 C   0  0  0  0  0  0  0  0  0  0  0  0
  -10.0537    0.7127   23.9144 C   0  0  0  0  0  0  0  0  0  0  0  0
   -9.3289   -0.1594   24.3573 C   0  0  0  0  0  0  0  0  0  0  0  0
   -8.8010    0.0003   25.7242 C   0  0  0  0  0  0  0  0  0  0  0  0
   -8.8581    1.3914   26.2911 C   0  0  0  0  0  0  0  0  0  0  0  0
   -7.9049   -0.9405   26.3812 C   0  0  2  0  0  0  0  0  0  0  0  0
   -7.7797   -0.8561   27.7175 C   0  0  0  0  0  0  0  0  0  0  0  0
   -6.5288   -1.0136   25.7877 C   0  0  2  0  0  0  0  0  0  0  0  0
   -8.6680   -2.2846   26.2516 C   0  0  0  0  0  0  0  0  0  0  0  0
   -8.3217   -3.1190   25.5089 C   0  0  0  0  0  0  0  0  0  0  0  0
   -6.1860   -1.9250   24.8013 C   0  0  0  0  0  0  0  0  0  0  0  0
   -6.9720   -3.0905   24.7709 C   0  0  0  0  0  0  0  0  0  0  0  0
   -6.5427   -0.3721   28.3171 C   0  0  0  0  0  0  0  0  0  0  0  0
   -5.4669   -0.2778   26.5020 C   0  0  0  0  0  0  0  0  0  0  0  0
   -5.4256   -0.0169   27.7676 C   0  0  0  0  0  0  0  0  0  0  0  0
  2  4  1  0
 17 15  1  6
 17 18  1  0
 17 19  1  0
 17 20  1  0
 21 23  1  0
 22 23  1  0
 19 25  1  1
 24 26  1  0
 18 24  1  0
 26 25  1  0
 19 22  1  0
 21 20  1  0
  1  2  2  0
  2  3  1  0
  3 11  2  0
 11 12  1  0
 12  6  2  0
  6  1  1  0
  4  5  2  0
  7  8  2  0
  8  9  1  0
  9 10  2  0
 10  4  1  0
  5  7  1  0
  7 13  1  0
 13 14  2  0
 14 15  1  0
 15 16  2  0
 16  5  1  0
M  END
$$$$
