No_964-complexes_sdf/6BKW-FPZ/2024-09-17-14-21-01/
     RDKit          3D

 30 33  0  0  0  0  0  0  0  0999 V2000
   -7.7129    4.2099   27.0854 C   0  0  0  0  0  0  0  0  0  0  0  0
   -7.7814    5.1722   27.8972 C   0  0  0  0  0  0  0  0  0  0  0  0
   -8.8776    3.8408   26.3416 C   0  0  0  0  0  0  0  0  0  0  0  0
   -9.9844    4.6492   26.4743 C   0  0  0  0  0  0  0  0  0  0  0  0
   -8.7830    6.1594   27.8870 C   0  0  0  0  0  0  0  0  0  0  0  0
  -11.0777    4.2772   25.6418 C   0  0  0  0  0  0  0  0  0  0  0  0
   -9.9463    5.8095   27.1423 C   0  0  0  0  0  0  0  0  0  0  0  0
  -10.9642    3.9876   24.3396 C   0  0  0  0  0  0  0  0  0  0  0  0
  -12.0118    3.6563   23.4720 C   0  0  0  0  0  0  0  0  0  0  0  0
  -13.3022    3.7431   23.9835 C   0  0  0  0  0  0  0  0  0  0  0  0
  -12.4690    4.3359   26.0164 C   0  0  0  0  0  0  0  0  0  0  0  0
  -13.5055    4.0953   25.3368 C   0  0  0  0  0  0  0  0  0  0  0  0
   -8.8123    2.6382   25.5104 C   0  0  0  0  0  0  0  0  0  0  0  0
   -9.0394    1.4081   26.2102 C   0  0  0  0  0  0  0  0  0  0  0  0
   -8.9384    0.2386   25.7297 C   0  0  0  0  0  0  0  0  0  0  0  0
   -8.7298   -0.0399   24.6334 C   0  0  0  0  0  0  0  0  0  0  0  0
   -8.6446    1.1550   23.6831 C   0  0  0  0  0  0  0  0  0  0  0  0
   -8.6840    2.4285   24.2014 C   0  0  0  0  0  0  0  0  0  0  0  0
   -9.0136   -0.9898   26.7486 C   0  0  0  0  0  0  0  0  0  0  0  0
   -7.9373   -1.3099   27.4344 C   0  0  0  0  0  0  0  0  0  0  0  0
   -7.9969   -2.1804   28.5200 C   0  0  0  0  0  0  0  0  0  0  0  0
   -9.2947   -2.6738   28.8973 C   0  0  0  0  0  0  0  0  0  0  0  0
  -10.4088   -2.2405   28.2594 C   0  0  0  0  0  0  0  0  0  0  0  0
  -10.3030   -1.3042   27.2244 C   0  0  0  0  0  0  0  0  0  0  0  0
   -6.5476   -0.8365   27.1433 C   0  0  0  0  0  0  0  0  0  0  0  0
   -5.7316   -0.7616   27.8439 N   0  0  0  0  0  0  0  0  0  0  0  0
   -5.1258   -1.1103   28.6227 C   0  0  0  0  0  0  0  0  0  0  0  0
   -4.8931   -0.2997   29.3957 F   0  0  0  0  0  0  0  0  0  0  0  0
   -5.0926    0.7781   27.6079 C   0  0  0  0  0  0  0  0  0  0  0  0
   -3.8124    0.8797   28.0395 C   0  0  0  0  0  0  0  0  0  0  0  0
  4  6  1  0
  3 13  1  0
 15 19  1  0
 20 25  1  0
 25 26  1  0
 26 27  1  0
 27 28  1  0
 26 29  1  0
 29 30  1  0
 13 14  2  0
 14 15  1  0
 15 16  2  0
 16 17  1  0
 17 18  2  0
 18 13  1  0
  6  8  2  0
  8  9  1  0
  9 10  2  0
 10 12  1  0
 12 11  2  0
 11  6  1  0
 19 20  2  0
 20 21  1  0
 21 22  2  0
 22 23  1  0
 23 24  2  0
 24 19  1  0
  1  2  2  0
  2  5  1  0
  5  7  2  0
  7  4  1  0
  4  3  2  0
  3  1  1  0
M  END
$$$$
