No_996-complexes_sdf/6BKW-FPZ/2024-09-17-14-21-01/
     RDKit          3D

 21 24  0  0  0  0  0  0  0  0999 V2000
   -7.7129    4.2099   27.0854 C   0  0  0  0  0  0  0  0  0  0  0  0
   -7.7814    5.1722   27.8972 C   0  0  0  0  0  0  0  0  0  0  0  0
   -8.7889    3.2468   27.2220 C   0  0  0  0  0  0  0  0  0  0  0  0
   -8.7402    2.0341   26.3990 C   0  0  0  0  0  0  0  0  0  0  0  0
   -8.9904    5.4233   28.4524 N   0  0  0  0  0  0  0  0  0  0  0  0
   -9.7774    4.3403   28.2109 C   0  0  0  0  0  0  0  0  0  0  0  0
   -9.4780    1.9517   25.4038 N   0  0  0  0  0  0  0  0  0  0  0  0
   -9.3724    0.7627   24.7106 C   0  0  0  0  0  0  0  0  0  0  0  0
   -7.6671    1.1986   26.6217 C   0  0  0  0  0  0  0  0  0  0  0  0
   -7.5628   -0.0050   26.0518 C   0  0  0  0  0  0  0  0  0  0  0  0
   -8.4526   -0.1637   24.9323 C   0  0  0  0  0  0  0  0  0  0  0  0
  -10.9550    3.9292   28.4574 N   0  0  0  0  0  0  0  0  0  0  0  0
  -11.2917    2.6939   28.8532 C   0  0  0  0  0  0  0  0  0  0  0  0
  -12.5462    2.2721   28.3538 C   0  0  0  0  0  0  0  0  0  0  0  0
  -12.7461    0.9117   28.2442 C   0  0  0  0  0  0  0  0  0  0  0  0
  -13.5687    3.1597   28.0505 C   0  0  0  0  0  0  0  0  0  0  0  0
  -13.9467    0.4024   27.6804 C   0  0  0  0  0  0  0  0  0  0  0  0
  -14.7969    2.6579   27.5713 C   0  0  0  0  0  0  0  0  0  0  0  0
  -14.9782    1.3165   27.3692 C   0  0  0  0  0  0  0  0  0  0  0  0
  -11.9070    5.0065   28.2366 C   0  0  0  0  0  0  0  0  0  0  0  0
  -13.2219    4.5625   27.9451 C   0  0  0  0  0  0  0  0  0  0  0  0
  1  2  1  0
  1  3  2  0
  3  4  1  0
  2  5  2  0
  3  6  1  0
  5  6  1  0
  6 12  1  0
 12 13  1  0
 13 14  1  0
 12 20  1  0
 16 21  1  0
 21 20  1  0
  4  7  2  0
  7  8  1  0
  8 11  2  0
 11 10  1  0
 10  9  2  0
  9  4  1  0
 14 15  2  0
 15 17  1  0
 17 19  2  0
 19 18  1  0
 18 16  2  0
 16 14  1  0
M  END
$$$$
