No_927-complexes_sdf/6BKW-FPZ/2024-09-17-14-21-01/
     RDKit          3D

 20 22  0  0  0  0  0  0  0  0999 V2000
   -7.9040    3.9820   27.1177 C   0  0  0  0  0  0  0  0  0  0  0  0
   -8.2057    2.8231   26.8733 C   0  0  0  0  0  0  0  0  0  0  0  0
   -9.2962    2.4021   26.1155 C   0  0  0  0  0  0  0  0  0  0  0  0
   -6.8682    4.5169   28.0704 C   0  0  0  0  0  0  0  0  0  0  0  0
  -10.0578    3.3688   25.5520 C   0  0  0  0  0  0  0  0  0  0  0  0
   -9.6997    4.7480   25.6981 C   0  0  0  0  0  0  0  0  0  0  0  0
   -8.6783    5.1111   26.5262 C   0  0  0  0  0  0  0  0  0  0  0  0
   -8.4112    6.4758   26.8405 C   0  0  0  0  0  0  0  0  0  0  0  0
   -7.3398    6.8507   27.6200 C   0  0  0  0  0  0  0  0  0  0  0  0
   -6.7173    5.8635   28.2811 C   0  0  0  0  0  0  0  0  0  0  0  0
   -7.4789    1.8013   27.4442 F   0  0  0  0  0  0  0  0  0  0  0  0
  -11.1497    3.0688   24.5738 C   0  0  0  0  0  0  0  0  0  0  0  0
  -11.1181    3.6565   23.3646 C   0  0  0  0  0  0  0  0  0  0  0  0
  -11.9235    3.4371   22.3113 C   0  0  0  0  0  0  0  0  0  0  0  0
  -12.4884    3.0838   25.1022 C   0  0  0  0  0  0  0  0  0  0  0  0
  -13.5066    2.7621   24.1470 C   0  0  0  0  0  0  0  0  0  0  0  0
  -13.2703    3.1884   22.7700 C   0  0  0  0  0  0  0  0  0  0  0  0
   -9.5972    0.9931   25.7845 C   0  0  0  0  0  0  0  0  0  0  0  0
  -10.2179    0.1975   26.6215 C   0  0  0  0  0  0  0  0  0  0  0  0
  -10.4876   -1.1502   26.4591 C   0  0  0  0  0  0  0  0  0  0  0  0
  2 11  1  0
  5 12  1  0
  3 18  1  0
 18 19  2  3
 19 20  1  0
 12 13  2  0
 13 14  1  0
 14 17  2  0
 17 16  1  0
 16 15  2  0
 15 12  1  0
  1  4  1  0
  4 10  2  0
 10  9  1  0
  9  8  2  0
  8  7  1  0
  1  2  2  0
  2  3  1  0
  3  5  2  0
  5  6  1  0
  6  7  2  0
  7  1  1  0
M  END
$$$$
