No_9604-complexes_sdf/6BKW-FPZ/2024-09-17-14-21-01/
     RDKit          3D

 13 13  0  0  0  0  0  0  0  0999 V2000
   -7.9040    3.9820   27.1177 C   0  0  0  0  0  0  0  0  0  0  0  0
   -9.0711    4.3164   27.0630 C   0  0  0  0  0  0  0  0  0  0  0  0
   -9.8698    3.9665   25.9495 C   0  0  0  0  0  0  0  0  0  0  0  0
   -7.4046    2.7946   26.4568 C   0  0  0  0  0  0  0  0  0  0  0  0
   -8.3659    2.1310   25.6816 C   0  0  0  0  0  0  0  0  0  0  0  0
   -9.5390    2.7825   25.4030 C   0  0  0  0  0  0  0  0  0  0  0  0
   -7.0032    4.5376   28.0552 O   0  0  0  0  0  0  0  0  0  0  0  0
  -10.4570    2.1791   24.3717 C   0  0  0  0  0  0  0  0  0  0  0  0
  -10.9917    2.7095   23.4564 C   0  0  0  0  0  0  0  0  0  0  0  0
  -10.7808    4.2574   23.2981 C   0  0  0  0  0  0  0  0  0  0  0  0
  -10.0327    4.8977   24.2424 C   0  0  0  0  0  0  0  0  0  0  0  0
   -9.8861    6.1237   24.5754 O   0  0  0  0  0  0  0  0  0  0  0  0
   -8.9089    4.8584   23.9161 O   0  0  0  0  0  0  0  0  0  0  0  0
  1  7  1  0
  6  8  1  0
  8  9  2  3
  9 10  1  0
 10 11  2  3
 11 12  1  0
 11 13  1  0
  1  2  2  0
  2  3  1  0
  3  6  2  0
  6  5  1  0
  5  4  2  0
  4  1  1  0
M  END
$$$$
