No_9940-complexes_sdf/6BKW-FPZ/2024-09-17-14-21-01/
     RDKit          3D

 19 21  0  0  0  0  0  0  0  0999 V2000
   -7.7129    4.2099   27.0854 C   0  0  0  0  0  0  0  0  0  0  0  0
   -7.7814    5.1722   27.8972 C   0  0  0  0  0  0  0  0  0  0  0  0
   -8.8776    3.8408   26.3416 C   0  0  0  0  0  0  0  0  0  0  0  0
   -9.9844    4.6492   26.4743 C   0  0  0  0  0  0  0  0  0  0  0  0
   -8.7830    6.1594   27.8870 C   0  0  0  0  0  0  0  0  0  0  0  0
   -9.9269    5.8191   27.1183 C   0  0  0  0  0  0  0  0  0  0  0  0
   -8.8833    2.5999   25.5655 C   0  0  0  0  0  0  0  0  0  0  0  0
   -8.2775    1.4603   26.1626 C   0  0  0  0  0  0  0  0  0  0  0  0
   -8.0972    0.3045   25.4882 C   0  0  0  0  0  0  0  0  0  0  0  0
   -8.6671    0.2682   24.1957 C   0  0  0  0  0  0  0  0  0  0  0  0
   -9.3672    2.4768   24.3123 C   0  0  0  0  0  0  0  0  0  0  0  0
   -9.2442    1.3193   23.6152 C   0  0  0  0  0  0  0  0  0  0  0  0
  -11.1621    4.3490   25.6571 C   0  0  0  0  0  0  0  0  0  0  0  0
  -12.3635    4.0309   26.3512 C   0  0  0  0  0  0  0  0  0  0  0  0
  -13.5335    3.7706   25.7181 C   0  0  0  0  0  0  0  0  0  0  0  0
  -14.6958    3.5162   26.4424 C   0  0  0  0  0  0  0  0  0  0  0  0
  -14.6462    3.5271   27.8633 C   0  0  0  0  0  0  0  0  0  0  0  0
  -13.4528    3.7887   28.5142 C   0  0  0  0  0  0  0  0  0  0  0  0
  -12.2998    4.0464   27.8365 C   0  0  0  0  0  0  0  0  0  0  0  0
  3  7  1  0
  4 13  1  0
 13 14  1  0
  7  8  2  0
  8  9  1  0
  9 10  2  0
 10 12  1  0
 12 11  2  0
 11  7  1  0
 14 15  2  0
 15 16  1  0
 16 17  2  0
 17 18  1  0
 18 19  2  0
 19 14  1  0
  1  2  2  0
  2  5  1  0
  5  6  2  0
  6  4  1  0
  4  3  2  0
  3  1  1  0
M  END
$$$$
