No_9888-complexes_sdf/6BKW-FPZ/2024-09-17-14-21-01/
     RDKit          3D

 40 44  0  0  0  0  0  0  0  0999 V2000
   -7.2496    3.8871   27.4508 C   0  0  0  0  0  0  0  0  0  0  0  0
   -7.9379    4.9063   27.8518 C   0  0  0  0  0  0  0  0  0  0  0  0
   -7.5112    6.1898   27.6280 C   0  0  0  0  0  0  0  0  0  0  0  0
   -7.8078    2.6331   27.2522 C   0  0  2  0  0  0  0  0  0  0  0  0
   -9.1846    2.4724   27.5426 C   0  0  0  0  0  0  0  0  0  0  0  0
   -9.9168    3.5155   28.0405 C   0  0  0  0  0  0  0  0  0  0  0  0
   -9.3366    4.7963   28.1727 C   0  0  0  0  0  0  0  0  0  0  0  0
  -11.3251    3.2741   28.4031 C   0  0  0  0  0  0  0  0  0  0  0  0
  -11.8022    2.0322   28.7055 C   0  0  0  0  0  0  0  0  0  0  0  0
  -13.1146    1.8250   29.1070 C   0  0  0  0  0  0  0  0  0  0  0  0
  -13.9407    2.9390   29.3089 C   0  0  0  0  0  0  0  0  0  0  0  0
  -13.5179    4.2135   28.9982 C   0  0  0  0  0  0  0  0  0  0  0  0
  -12.2019    4.4090   28.5809 C   0  0  0  0  0  0  0  0  0  0  0  0
   -7.0596    1.4370   26.8676 C   0  0  0  0  0  0  0  0  0  0  0  0
   -7.0818    0.3540   27.7286 C   0  0  0  0  0  0  0  0  0  0  0  0
   -5.9974   -0.3814   27.9886 C   0  0  0  0  0  0  0  0  0  0  0  0
   -5.2851   -0.1509   28.7527 C   0  0  0  0  0  0  0  0  0  0  0  0
   -3.9886   -0.9228   29.1169 C   0  0  0  0  0  0  0  0  0  0  0  0
   -3.1164   -0.5379   30.1142 C   0  0  0  0  0  0  0  0  0  0  0  0
   -5.6423   -1.7324   27.3820 C   0  0  0  0  0  0  0  0  0  0  0  0
   -3.7402   -2.0210   28.3224 C   0  0  0  0  0  0  0  0  0  0  0  0
   -4.5980   -2.4372   27.4624 C   0  0  0  0  0  0  0  0  0  0  0  0
   -3.2653   -1.1095   31.4226 C   0  0  0  0  0  0  0  0  0  0  0  0
   -2.9319   -0.3812   32.5623 C   0  0  0  0  0  0  0  0  0  0  0  0
   -3.0044   -0.9699   33.8024 C   0  0  0  0  0  0  0  0  0  0  0  0
   -3.5366   -2.2190   33.9484 C   0  0  0  0  0  0  0  0  0  0  0  0
   -3.7510   -2.3987   31.6325 C   0  0  0  0  0  0  0  0  0  0  0  0
   -3.8860   -2.9105   32.8774 C   0  0  0  0  0  0  0  0  0  0  0  0
  -15.3559    2.6986   29.7403 C   0  0  0  0  0  0  0  0  0  0  0  0
  -15.7128    2.1044   30.6481 N   0  0  0  0  0  0  0  0  0  0  0  0
  -16.8159    1.6672   30.9519 C   0  0  0  0  0  0  0  0  0  0  0  0
  -16.2136    3.2830   28.9927 O   0  0  0  0  0  0  0  0  0  0  0  0
   -6.7610   -2.0687   26.2465 C   0  0  0  0  0  0  0  0  0  0  0  0
   -7.6495   -2.8153   26.5180 C   0  0  0  0  0  0  0  0  0  0  0  0
   -8.7577   -2.9713   25.7646 C   0  0  0  0  0  0  0  0  0  0  0  0
   -8.7794   -2.3029   24.5140 C   0  0  0  0  0  0  0  0  0  0  0  0
   -7.6972   -1.4488   24.1402 C   0  0  0  0  0  0  0  0  0  0  0  0
   -6.6795   -1.2051   25.0785 C   0  0  0  0  0  0  0  0  0  0  0  0
   -7.7555   -0.6580   22.9046 C   0  0  0  0  0  0  0  0  0  0  0  0
   -8.8779    0.0606   22.6635 C   0  0  0  0  0  0  0  0  0  0  0  0
  1  2  1  0
  2  3  2  0
  1  4  1  0
  4  5  1  0
  5  6  1  0
  2  7  1  0
  6  7  1  0
  6  8  1  0
  4 14  1  1
 14 15  1  0
 15 16  1  0
 19 23  1  0
 11 29  1  0
 29 30  1  0
 30 31  1  0
 29 32  2  0
 20 33  1  0
 37 39  1  0
 39 40  1  0
 19 18  1  0
 33 34  2  0
 34 35  1  0
 35 36  2  0
 36 37  1  0
 37 38  2  0
 38 33  1  0
 23 24  2  0
 24 25  1  0
 25 26  2  0
 26 28  1  0
 28 27  2  0
 27 23  1  0
 16 17  2  0
 17 18  1  0
 18 21  2  0
 21 22  1  0
 22 20  2  0
 20 16  1  0
  8  9  2  0
  9 10  1  0
 10 11  2  0
 11 12  1  0
 12 13  2  0
 13  8  1  0
M  END
$$$$
