No_9426-complexes_sdf/6BKW-FPZ/2024-09-17-14-21-01/
     RDKit          3D

 35 39  0  0  0  0  0  0  0  0999 V2000
   -7.9040    3.9820   27.1177 C   0  0  0  0  0  0  0  0  0  0  0  0
   -9.0711    4.3164   27.0630 C   0  0  0  0  0  0  0  0  0  0  0  0
   -9.5294    5.4517   27.7215 C   0  0  0  0  0  0  0  0  0  0  0  0
   -6.9328    4.7309   27.8881 C   0  0  0  0  0  0  0  0  0  0  0  0
   -7.3666    5.8455   28.5488 C   0  0  0  0  0  0  0  0  0  0  0  0
   -8.6669    6.2428   28.4199 C   0  0  0  0  0  0  0  0  0  0  0  0
  -10.0479    3.5083   26.2510 C   0  0  2  0  0  0  0  0  0  0  0  0
  -10.4851    2.3915   26.4094 C   0  0  0  0  0  0  0  0  0  0  0  0
  -10.0216    1.7601   27.7461 C   0  0  0  0  0  0  0  0  0  0  0  0
  -10.4624    0.3921   28.1011 C   0  0  0  0  0  0  0  0  0  0  0  0
  -11.1548   -0.2872   27.1440 C   0  0  0  0  0  0  0  0  0  0  0  0
  -11.5113    0.2265   25.9172 C   0  0  0  0  0  0  0  0  0  0  0  0
  -11.1317    1.4946   25.5994 C   0  0  0  0  0  0  0  0  0  0  0  0
  -10.4054    4.2047   24.9414 C   0  0  0  0  0  0  0  0  0  0  0  0
   -9.9523    4.2780   24.0082 C   0  0  0  0  0  0  0  0  0  0  0  0
  -10.4293    4.9189   22.7649 C   0  0  0  0  0  0  0  0  0  0  0  0
  -11.6023    4.6361   22.2443 C   0  0  0  0  0  0  0  0  0  0  0  0
  -12.5322    4.2330   23.3694 C   0  0  0  0  0  0  0  0  0  0  0  0
  -11.9927    3.9652   24.7643 C   0  0  0  0  0  0  0  0  0  0  0  0
  -13.9442    4.1720   23.1999 C   0  0  0  0  0  0  0  0  0  0  0  0
  -14.4148    3.0192   23.3940 C   0  0  0  0  0  0  0  0  0  0  0  0
  -15.8481    2.8099   23.2331 C   0  0  0  0  0  0  0  0  0  0  0  0
  -16.6094    3.8829   22.8301 C   0  0  0  0  0  0  0  0  0  0  0  0
  -16.0435    5.1140   22.6130 C   0  0  0  0  0  0  0  0  0  0  0  0
  -14.6485    5.3400   22.7947 C   0  0  0  0  0  0  0  0  0  0  0  0
  -11.6026   -1.6653   27.5209 C   0  0  0  0  0  0  0  0  0  0  0  0
  -12.2577   -2.2858   26.8981 C   0  0  0  0  0  0  0  0  0  0  0  0
  -12.6950   -3.6134   27.2730 C   0  0  0  0  0  0  0  0  0  0  0  0
  -12.2223   -4.1057   28.4764 C   0  0  0  0  0  0  0  0  0  0  0  0
  -11.4219   -3.3853   29.2768 C   0  0  0  0  0  0  0  0  0  0  0  0
  -11.0570   -2.0919   28.8947 C   0  0  0  0  0  0  0  0  0  0  0  0
  -12.6411   -5.4991   28.9090 C   0  0  0  0  0  0  0  0  0  0  0  0
  -12.2592   -5.9252   30.0137 F   0  0  0  0  0  0  0  0  0  0  0  0
  -14.0120   -5.5367   28.8460 F   0  0  0  0  0  0  0  0  0  0  0  0
  -12.1489   -6.3299   27.9496 F   0  0  0  0  0  0  0  0  0  0  0  0
  7  2  1  6
  7 14  1  0
 18 20  1  0
 11 26  1  0
 29 32  1  0
 32 33  1  0
 32 34  1  0
 32 35  1  0
  7  8  1  0
  1  2  2  0
  2  3  1  0
  3  6  2  0
  6  5  1  0
  5  4  2  0
  4  1  1  0
 14 15  2  0
 15 16  1  0
 16 17  2  0
 17 18  1  0
 18 19  2  0
 19 14  1  0
 20 21  2  0
 21 22  1  0
 22 23  2  0
 23 24  1  0
 24 25  2  0
 25 20  1  0
 26 27  2  0
 27 28  1  0
 28 29  2  0
 29 30  1  0
 30 31  2  0
 31 26  1  0
  8  9  2  0
  9 10  1  0
 10 11  2  0
 11 12  1  0
 12 13  2  0
 13  8  1  0
M  END
$$$$
