No_9315-complexes_sdf/6BKW-FPZ/2024-09-17-14-21-01/
     RDKit          3D

 30 32  0  0  0  0  0  0  0  0999 V2000
   -7.9040    3.9820   27.1177 C   0  0  0  0  0  0  0  0  0  0  0  0
   -9.0711    4.3164   27.0630 C   0  0  0  0  0  0  0  0  0  0  0  0
   -9.5294    5.4517   27.7215 C   0  0  0  0  0  0  0  0  0  0  0  0
   -7.4336    2.7132   26.5681 C   0  0  0  0  0  0  0  0  0  0  0  0
   -8.3353    1.8569   26.0442 C   0  0  0  0  0  0  0  0  0  0  0  0
   -9.6477    2.2853   25.9146 C   0  0  1  0  0  0  0  0  0  0  0  0
  -10.0346    3.4497   26.4483 C   0  0  0  0  0  0  0  0  0  0  0  0
   -7.8750    0.5509   25.5918 C   0  0  0  0  0  0  0  0  0  0  0  0
   -7.0002   -0.0835   26.2676 N   0  0  0  0  0  0  0  0  0  0  0  0
   -6.1265   -0.9083   25.8188 C   0  0  0  0  0  0  0  0  0  0  0  0
   -5.0485   -1.3792   26.6714 C   0  0  0  0  0  0  0  0  0  0  0  0
   -5.0978   -0.8885   27.9410 C   0  0  0  0  0  0  0  0  0  0  0  0
   -6.0502    0.0510   28.4608 C   0  0  0  0  0  0  0  0  0  0  0  0
   -6.9214    0.4588   27.6005 C   0  0  0  0  0  0  0  0  0  0  0  0
   -4.0029   -1.3675   28.9396 C   0  0  0  0  0  0  0  0  0  0  0  0
   -3.9261   -1.0930   30.0369 O   0  0  0  0  0  0  0  0  0  0  0  0
   -3.0549   -2.1966   28.4127 N   0  0  0  0  0  0  0  0  0  0  0  0
   -1.9367   -2.6238   29.2579 C   0  0  0  0  0  0  0  0  0  0  0  0
  -10.5504    1.4474   25.1242 C   0  0  0  0  0  0  0  0  0  0  0  0
  -11.3697    0.7153   25.8457 C   0  0  0  0  0  0  0  0  0  0  0  0
  -11.1748    2.1736   23.9864 C   0  0  0  0  0  0  0  0  0  0  0  0
  -11.5691    1.7780   23.0502 C   0  0  0  0  0  0  0  0  0  0  0  0
  -12.3811    2.4661   22.0425 C   0  0  0  0  0  0  0  0  0  0  0  0
  -12.3735    3.9142   22.1550 C   0  0  0  0  0  0  0  0  0  0  0  0
  -11.7666    4.4980   23.2608 C   0  0  0  0  0  0  0  0  0  0  0  0
  -11.0986    3.7352   24.1959 C   0  0  0  0  0  0  0  0  0  0  0  0
  -12.0948    1.2410   26.8240 C   0  0  0  0  0  0  0  0  0  0  0  0
  -13.0004    0.5305   27.7089 C   0  0  0  0  0  0  0  0  0  0  0  0
  -12.9807   -0.7906   27.5172 C   0  0  0  0  0  0  0  0  0  0  0  0
  -12.2614   -1.4656   26.5443 C   0  0  0  0  0  0  0  0  0  0  0  0
  1  2  1  0
  2  3  2  0
  1  4  1  0
  4  5  1  0
  5  6  1  0
  2  7  1  0
  6  7  1  6
  5  8  1  0
  8  9  1  0
  9 10  1  0
 11 12  1  0
  9 14  1  0
 13 14  1  0
 12 15  1  0
 15 16  1  0
 15 17  2  3
 17 18  1  0
  6 19  1  0
 19 20  2  3
 19 21  1  0
 20 27  1  0
 27 28  2  3
 28 29  1  0
 29 30  2  0
 10 11  1  0
 12 13  1  0
 21 22  2  0
 22 23  1  0
 23 24  2  0
 24 25  1  0
 25 26  2  0
 26 21  1  0
M  END
$$$$
