No_9453-complexes_sdf/6BKW-FPZ/2024-09-17-14-21-01/
     RDKit          3D

 21 23  0  0  0  0  0  0  0  0999 V2000
   -7.7129    4.2099   27.0854 C   0  0  0  0  0  0  0  0  0  0  0  0
   -8.9133    4.4736   27.0998 C   0  0  0  0  0  0  0  0  0  0  0  0
   -9.4643    5.5426   27.7628 C   0  0  0  0  0  0  0  0  0  0  0  0
   -6.8373    4.9942   27.9785 C   0  0  0  0  0  0  0  0  0  0  0  0
   -7.3932    6.0303   28.6784 C   0  0  0  0  0  0  0  0  0  0  0  0
   -8.7122    6.3429   28.5485 C   0  0  0  0  0  0  0  0  0  0  0  0
   -9.7912    3.6118   26.1875 C   0  0  0  0  0  0  0  0  0  0  0  0
  -10.0449    4.0843   24.9272 C   0  0  0  0  0  0  0  0  0  0  0  0
  -10.7514    3.4030   23.9427 C   0  0  0  0  0  0  0  0  0  0  0  0
  -11.1304    2.1011   24.2165 C   0  0  0  0  0  0  0  0  0  0  0  0
  -10.3131    2.3823   26.5283 C   0  0  0  0  0  0  0  0  0  0  0  0
  -10.9364    1.5877   25.5485 C   0  0  0  0  0  0  0  0  0  0  0  0
  -10.9261    3.9902   22.6231 C   0  0  0  0  0  0  0  0  0  0  0  0
  -10.4435    3.4601   21.5010 C   0  0  0  0  0  0  0  0  0  0  0  0
  -10.6468    4.0980   20.2788 C   0  0  0  0  0  0  0  0  0  0  0  0
  -11.4356    5.1575   20.2198 C   0  0  0  0  0  0  0  0  0  0  0  0
  -11.6788    5.2233   22.4601 C   0  0  0  0  0  0  0  0  0  0  0  0
  -11.9025    5.7313   21.3666 C   0  0  0  0  0  0  0  0  0  0  0  0
  -10.0208    1.8152   27.8937 C   0  0  1  0  0  0  0  0  0  0  0  0
  -10.0730    2.3212   28.8109 N   0  0  0  0  0  0  0  0  0  0  0  0
   -9.7821    0.5154   27.8963 F   0  0  0  0  0  0  0  0  0  0  0  0
  2  7  1  0
  9 13  1  0
 11 19  1  0
 19 20  1  1
 19 21  1  0
  7  8  2  0
  8  9  1  0
  9 10  2  0
 10 12  1  0
 12 11  2  0
 11  7  1  0
  1  2  2  0
  2  3  1  0
  3  6  2  0
  6  5  1  0
  5  4  2  0
  4  1  1  0
 13 14  2  0
 14 15  1  0
 15 16  2  0
 16 18  1  0
 18 17  2  0
 17 13  1  0
M  END
$$$$
