No_9926-complexes_sdf/6BKW-FPZ/2024-09-17-14-21-01/
     RDKit          3D

 25 28  0  0  0  0  0  0  0  0999 V2000
   -7.9040    3.9820   27.1177 C   0  0  0  0  0  0  0  0  0  0  0  0
   -8.2057    2.8231   26.8733 C   0  0  0  0  0  0  0  0  0  0  0  0
   -7.4766    1.7477   27.4593 C   0  0  0  0  0  0  0  0  0  0  0  0
   -8.7468    5.1251   26.6967 C   0  0  0  0  0  0  0  0  0  0  0  0
   -8.4775    6.4967   27.1056 C   0  0  0  0  0  0  0  0  0  0  0  0
   -7.7864    0.3940   27.2703 C   0  0  0  0  0  0  0  0  0  0  0  0
   -9.0192    0.1650   26.6014 C   0  0  0  0  0  0  0  0  0  0  0  0
   -9.7483    1.1632   26.0299 C   0  0  0  0  0  0  0  0  0  0  0  0
   -9.3475    2.4797   26.2024 C   0  0  0  0  0  0  0  0  0  0  0  0
   -9.3104    7.5147   26.6382 C   0  0  0  0  0  0  0  0  0  0  0  0
   -9.7836    4.8839   25.7643 C   0  0  0  0  0  0  0  0  0  0  0  0
  -10.1781    3.5102   25.6026 C   0  0  0  0  0  0  0  0  0  0  0  0
   -7.2178    6.7032   27.7676 C   0  0  0  0  0  0  0  0  0  0  0  0
   -7.0050   -0.6516   27.8859 C   0  0  0  0  0  0  0  0  0  0  0  0
   -5.7117   -0.4005   28.2934 C   0  0  0  0  0  0  0  0  0  0  0  0
   -4.8351   -1.0727   28.8070 C   0  0  0  0  0  0  0  0  0  0  0  0
   -3.4960   -0.5928   29.2581 C   0  0  0  0  0  0  0  0  0  0  0  0
   -3.1680    0.7305   28.9042 C   0  0  0  0  0  0  0  0  0  0  0  0
   -4.1173    1.4732   28.2501 C   0  0  0  0  0  0  0  0  0  0  0  0
   -5.2583    1.0566   27.9714 C   0  0  0  0  0  0  0  0  0  0  0  0
   -6.2595    1.9443   27.5323 N   0  0  0  0  0  0  0  0  0  0  0  0
   -2.5308   -1.4814   29.9271 C   0  0  0  0  0  0  0  0  0  0  0  0
   -1.5866   -2.0519   29.5067 F   0  0  0  0  0  0  0  0  0  0  0  0
   -2.0393   -0.7100   31.0580 F   0  0  0  0  0  0  0  0  0  0  0  0
   -3.3457   -2.3680   30.7226 F   0  0  0  0  0  0  0  0  0  0  0  0
  5 10  1  0
  5 13  1  0
 17 22  1  0
 22 23  1  0
 22 24  1  0
 22 25  1  0
  5  4  1  0
 15 16  1  0
 16 17  2  0
 17 18  1  0
 18 19  2  0
 19 20  1  0
  2  3  1  0
  6  7  1  0
  7  8  2  0
  8  9  1  0
  1  2  2  0
  2  9  1  0
  9 12  2  0
 12 11  1  0
 11  4  2  0
  4  1  1  0
  3  6  2  0
  6 14  1  0
 14 15  2  0
 15 20  1  0
 20 21  2  0
 21  3  1  0
M  END
$$$$
