No_9966-complexes_sdf/6BKW-FPZ/2024-09-17-14-21-01/
     RDKit          3D

 10 10  0  0  0  0  0  0  0  0999 V2000
   -7.2496    3.8871   27.4508 C   0  0  0  0  0  0  0  0  0  0  0  0
   -7.9379    4.9063   27.8518 C   0  0  0  0  0  0  0  0  0  0  0  0
   -8.9501    5.3664   27.1340 C   0  0  0  0  0  0  0  0  0  0  0  0
   -6.1760    3.3069   28.2733 C   0  0  2  0  0  0  0  0  0  0  0  0
   -9.4725    4.8710   26.2138 C   0  0  0  0  0  0  0  0  0  0  0  0
   -8.9424    3.6279   25.7451 C   0  0  0  0  0  0  0  0  0  0  0  0
   -7.8791    3.1192   26.4200 C   0  0  0  0  0  0  0  0  0  0  0  0
   -5.3697    4.1093   28.8361 F   0  0  0  0  0  0  0  0  0  0  0  0
   -5.7190    1.9642   28.0255 C   0  0  0  0  0  0  0  0  0  0  0  0
   -4.4786    1.6523   28.5157 N   0  0  0  0  0  0  0  0  0  0  0  0
  1  4  1  0
  4  8  1  6
  4  9  1  0
  9 10  1  0
  1  2  2  0
  2  3  1  0
  3  5  2  0
  5  6  1  0
  6  7  2  0
  7  1  1  0
M  END
$$$$
