No_9398-complexes_sdf/6BKW-FPZ/2024-09-17-14-21-01/
     RDKit          3D

 27 30  0  0  0  0  0  0  0  0999 V2000
   -7.9040    3.9820   27.1177 C   0  0  0  0  0  0  0  0  0  0  0  0
   -7.8663    4.8694   27.9238 C   0  0  0  0  0  0  0  0  0  0  0  0
   -7.4547    2.7080   27.4594 C   0  0  0  0  0  0  0  0  0  0  0  0
   -7.9337    1.5946   26.8372 C   0  0  0  0  0  0  0  0  0  0  0  0
   -8.9032    1.7881   25.8510 C   0  0  0  0  0  0  0  0  0  0  0  0
   -9.3787    2.9871   25.5530 C   0  0  0  0  0  0  0  0  0  0  0  0
   -8.9781    4.0300   26.2200 C   0  0  0  0  0  0  0  0  0  0  0  0
   -7.9493    6.0343   27.8951 N   0  0  0  0  0  0  0  0  0  0  0  0
  -10.3836    3.1260   24.4284 C   0  0  0  0  0  0  0  0  0  0  0  0
  -11.0143    4.2995   24.2247 C   0  0  0  0  0  0  0  0  0  0  0  0
  -11.7810    4.4090   23.3503 C   0  0  0  0  0  0  0  0  0  0  0  0
  -12.0983    3.4698   22.3652 C   0  0  0  0  0  0  0  0  0  0  0  0
  -10.6785    2.1991   23.4993 C   0  0  0  0  0  0  0  0  0  0  0  0
  -11.4458    2.3175   22.4734 C   0  0  0  0  0  0  0  0  0  0  0  0
   -8.5669    6.6276   26.8549 C   0  0  0  0  0  0  0  0  0  0  0  0
   -8.7693    8.0189   26.6984 C   0  0  0  0  0  0  0  0  0  0  0  0
   -9.2329    5.8493   25.8432 C   0  0  0  0  0  0  0  0  0  0  0  0
   -7.3793    0.2399   27.0872 C   0  0  0  0  0  0  0  0  0  0  0  0
   -6.0885    0.0862   27.6285 C   0  0  0  0  0  0  0  0  0  0  0  0
   -5.6081   -1.1133   28.0873 C   0  0  0  0  0  0  0  0  0  0  0  0
   -4.3016   -1.1834   28.6635 C   0  0  0  0  0  0  0  0  0  0  0  0
   -3.5127   -0.0075   28.7862 C   0  0  0  0  0  0  0  0  0  0  0  0
   -4.0498    1.2117   28.3523 C   0  0  0  0  0  0  0  0  0  0  0  0
   -5.2647    1.2760   27.8355 C   0  0  0  0  0  0  0  0  0  0  0  0
   -8.1671   -0.9010   26.8143 C   0  0  0  0  0  0  0  0  0  0  0  0
   -9.0210   -1.3586   27.3502 C   0  0  0  0  0  0  0  0  0  0  0  0
   -9.8435   -2.4962   27.0077 C   0  0  0  0  0  0  0  0  0  0  0  0
  6  9  1  0
 15 16  1  0
  4 18  1  0
 18 19  1  0
 18 25  1  0
 25 26  2  3
 26 27  1  0
 19 20  2  0
 20 21  1  0
 21 22  2  0
 22 23  1  0
 23 24  2  0
 24 19  1  0
  1  2  2  0
  2  8  1  0
  8 15  2  0
 15 17  1  0
 17  7  2  0
  9 10  2  0
 10 11  1  0
 11 12  2  0
 12 14  1  0
 14 13  2  0
 13  9  1  0
  1  3  1  0
  3  4  2  0
  4  5  1  0
  5  6  2  0
  6  7  1  0
  7  1  1  0
M  END
$$$$
