No_9890-complexes_sdf/6BKW-FPZ/2024-09-17-14-21-01/
     RDKit          3D

 20 21  0  0  0  0  0  0  0  0999 V2000
   -7.2496    3.8871   27.4508 C   0  0  0  0  0  0  0  0  0  0  0  0
   -7.9379    4.9063   27.8518 C   0  0  0  0  0  0  0  0  0  0  0  0
   -8.9501    5.3664   27.1340 C   0  0  0  0  0  0  0  0  0  0  0  0
   -7.8297    2.9727   26.4637 C   0  0  0  0  0  0  0  0  0  0  0  0
   -9.6373    4.6098   26.1956 C   0  0  0  0  0  0  0  0  0  0  0  0
   -9.0235    3.4546   25.8531 C   0  0  0  0  0  0  0  0  0  0  0  0
   -9.6280    2.5544   24.8729 C   0  0  0  0  0  0  0  0  0  0  0  0
   -9.3935    1.2576   24.7986 C   0  0  0  0  0  0  0  0  0  0  0  0
   -8.2618    0.8306   25.6503 C   0  0  0  0  0  0  0  0  0  0  0  0
   -7.5144    1.6280   26.4470 C   0  0  0  0  0  0  0  0  0  0  0  0
   -7.3197    5.7814   28.7771 O   0  0  0  0  0  0  0  0  0  0  0  0
   -7.8577   -0.6488   25.5041 C   0  0  2  0  0  0  0  0  0  0  0  0
   -8.0336   -1.2690   24.7240 N   0  0  0  0  0  0  0  0  0  0  0  0
   -7.5851   -1.7186   23.8514 C   0  0  0  0  0  0  0  0  0  0  0  0
   -8.3131   -1.1132   26.9268 C   0  0  0  0  0  0  0  0  0  0  0  0
   -9.5218   -1.3202   27.3444 C   0  0  0  0  0  0  0  0  0  0  0  0
   -9.8227   -1.7951   28.6553 C   0  0  0  0  0  0  0  0  0  0  0  0
  -11.1637   -1.8488   29.1121 C   0  0  0  0  0  0  0  0  0  0  0  0
  -12.1697   -1.3952   28.2469 C   0  0  0  0  0  0  0  0  0  0  0  0
  -11.8962   -0.8950   27.0107 C   0  0  0  0  0  0  0  0  0  0  0  0
  2 11  1  0
  9 12  1  0
 12 13  1  6
 13 14  1  0
 12 15  1  0
 15 16  2  3
 16 17  1  0
 17 18  2  3
 18 19  1  0
 19 20  2  0
  6  7  2  0
  7  8  1  0
  8  9  2  0
  9 10  1  0
 10  4  2  0
  1  2  2  0
  2  3  1  0
  3  5  2  0
  5  6  1  0
  6  4  1  0
  4  1  1  0
M  END
$$$$
