No_9078-complexes_sdf/6BKW-FPZ/2024-09-17-14-21-01/
     RDKit          3D

 39 45  0  0  0  0  0  0  0  0999 V2000
   -7.7129    4.2099   27.0854 C   0  0  0  0  0  0  0  0  0  0  0  0
   -7.7814    5.1722   27.8972 C   0  0  0  0  0  0  0  0  0  0  0  0
   -8.8255    3.2789   27.1191 C   0  0  0  0  0  0  0  0  0  0  0  0
   -9.9209    3.4734   27.9101 C   0  0  0  0  0  0  0  0  0  0  0  0
   -9.9736    4.7085   28.6831 C   0  0  0  0  0  0  0  0  0  0  0  0
   -8.8840    5.5441   28.6612 C   0  0  0  0  0  0  0  0  0  0  0  0
   -8.7102    2.0171   26.3293 C   0  0  0  0  0  0  0  0  0  0  0  0
   -7.9282    0.9441   26.6637 C   0  0  0  0  0  0  0  0  0  0  0  0
   -7.8145   -0.1498   25.9000 C   0  0  0  0  0  0  0  0  0  0  0  0
   -9.3559    1.9918   25.1065 C   0  0  0  0  0  0  0  0  0  0  0  0
   -9.2614    0.9281   24.2398 C   0  0  0  0  0  0  0  0  0  0  0  0
   -8.4789   -0.1491   24.6368 C   0  0  0  0  0  0  0  0  0  0  0  0
  -10.1092    3.2040   24.6022 C   0  0  0  0  0  0  0  0  0  0  0  0
  -10.2561    4.3493   25.2830 C   0  0  0  0  0  0  0  0  0  0  0  0
  -10.6760    2.9261   23.3141 C   0  0  0  0  0  0  0  0  0  0  0  0
  -10.5570    1.9161   22.5489 C   0  0  0  0  0  0  0  0  0  0  0  0
   -9.7588    0.8287   22.9626 C   0  0  0  0  0  0  0  0  0  0  0  0
  -10.9919    2.5575   28.0383 C   0  0  0  0  0  0  0  0  0  0  0  0
  -12.1538    2.8677   28.7721 C   0  0  0  0  0  0  0  0  0  0  0  0
  -13.1952    1.9221   29.0236 C   0  0  0  0  0  0  0  0  0  0  0  0
  -12.9847    0.6569   28.4620 C   0  0  0  0  0  0  0  0  0  0  0  0
  -11.8761    0.3019   27.7102 C   0  0  0  0  0  0  0  0  0  0  0  0
  -10.8663    1.2370   27.5909 C   0  0  0  0  0  0  0  0  0  0  0  0
  -11.7718   -1.0729   27.2115 C   0  0  0  0  0  0  0  0  0  0  0  0
  -10.9947   -2.0004   27.7815 C   0  0  0  0  0  0  0  0  0  0  0  0
  -10.7670   -3.2496   27.2573 C   0  0  0  0  0  0  0  0  0  0  0  0
  -12.3662   -1.3370   25.9907 C   0  0  0  0  0  0  0  0  0  0  0  0
  -12.2119   -2.6238   25.4054 C   0  0  0  0  0  0  0  0  0  0  0  0
  -11.4127   -3.5428   26.0556 C   0  0  0  0  0  0  0  0  0  0  0  0
  -11.2730   -4.8813   25.4233 C   0  0  0  0  0  0  0  0  0  0  0  0
  -11.7239   -5.2200   24.4679 C   0  0  0  0  0  0  0  0  0  0  0  0
  -11.5873   -6.4996   23.8852 C   0  0  0  0  0  0  0  0  0  0  0  0
  -10.7812   -7.3807   24.6007 C   0  0  0  0  0  0  0  0  0  0  0  0
  -10.1946   -7.0423   25.7352 C   0  0  0  0  0  0  0  0  0  0  0  0
  -10.3546   -5.7557   26.2533 C   0  0  0  0  0  0  0  0  0  0  0  0
   -9.3461   -8.0029   26.4736 C   0  0  0  0  0  0  0  0  0  0  0  0
   -8.7204   -7.5881   27.5820 C   0  0  0  0  0  0  0  0  0  0  0  0
   -8.9500   -6.2145   28.0262 C   0  0  0  0  0  0  0  0  0  0  0  0
   -9.6610   -5.3371   27.4691 C   0  0  0  0  0  0  0  0  0  0  0  0
  3  7  1  0
  4 18  1  0
 22 24  1  0
 29 30  1  0
 14 13  1  0
 18 19  2  0
 19 20  1  0
 20 21  2  0
 21 22  1  0
 22 23  2  0
 23 18  1  0
 24 25  2  0
 25 26  1  0
 26 29  2  0
 29 28  1  0
 28 27  2  0
 27 24  1  0
  7  8  2  0
  8  9  1  0
  9 12  2  0
 12 11  1  0
 10  7  1  0
 30 31  2  0
 31 32  1  0
 32 33  2  0
 33 34  1  0
 35 30  1  0
 10 11  2  0
 11 17  1  0
 17 16  2  0
 16 15  1  0
 15 13  2  0
 13 10  1  0
  1  2  2  0
  2  6  1  0
  6  5  2  0
  5  4  1  0
  4  3  2  0
  3  1  1  0
 34 35  2  0
 35 39  1  0
 39 38  2  0
 38 37  1  0
 37 36  2  0
 36 34  1  0
M  END
$$$$
