No_9531-complexes_sdf/6BKW-FPZ/2024-09-17-14-21-01/
     RDKit          3D

 16 16  0  0  0  0  0  0  0  0999 V2000
   -7.2496    3.8871   27.4508 C   0  0  0  0  0  0  0  0  0  0  0  0
   -7.6161    2.7143   27.1523 C   0  0  0  0  0  0  0  0  0  0  0  0
   -8.8827    2.2318   27.1220 C   0  0  0  0  0  0  0  0  0  0  0  0
   -8.2837    4.9116   27.6108 C   0  0  0  0  0  0  0  0  0  0  0  0
   -9.6088    4.5175   27.5560 C   0  0  0  0  0  0  0  0  0  0  0  0
   -9.9243    3.2149   27.3938 C   0  0  0  0  0  0  0  0  0  0  0  0
   -7.9091    6.1407   27.9093 F   0  0  0  0  0  0  0  0  0  0  0  0
   -9.2771    0.8551   26.9174 C   0  0  2  0  0  0  0  0  0  0  0  0
   -8.6429   -0.0628   27.0294 N   0  0  0  0  0  0  0  0  0  0  0  0
   -9.0630   -1.3673   26.9621 C   0  0  0  0  0  0  0  0  0  0  0  0
  -10.2737    0.5720   25.8766 C   0  0  0  0  0  0  0  0  0  0  0  0
  -10.9696    1.7194   25.3377 C   0  0  0  0  0  0  0  0  0  0  0  0
  -11.3537    1.7958   24.3495 C   0  0  0  0  0  0  0  0  0  0  0  0
  -12.0817    3.0074   23.7655 C   0  0  0  0  0  0  0  0  0  0  0  0
  -12.0834    4.1221   24.6267 C   0  0  0  0  0  0  0  0  0  0  0  0
  -11.4904    4.0795   25.8115 C   0  0  0  0  0  0  0  0  0  0  0  0
  4  7  1  0
  3  8  1  0
  8  9  1  6
  9 10  1  0
  8 11  1  0
 11 12  2  3
 12 13  1  0
 13 14  2  3
 14 15  1  0
 15 16  2  0
  1  2  2  0
  2  3  1  0
  3  6  2  0
  6  5  1  0
  5  4  2  0
  4  1  1  0
M  END
$$$$
