No_9858-complexes_sdf/6BKW-FPZ/2024-09-17-14-21-01/
     RDKit          3D

 40 45  0  0  0  0  0  0  0  0999 V2000
   -7.9040    3.9820   27.1177 C   0  0  0  0  0  0  0  0  0  0  0  0
   -8.2057    2.8231   26.8733 C   0  0  0  0  0  0  0  0  0  0  0  0
   -9.2962    2.4021   26.1155 C   0  0  0  0  0  0  0  0  0  0  0  0
   -6.8682    4.5169   28.0704 C   0  0  0  0  0  0  0  0  0  0  0  0
  -10.0578    3.3688   25.5520 C   0  0  0  0  0  0  0  0  0  0  0  0
   -9.6997    4.7480   25.6981 C   0  0  0  0  0  0  0  0  0  0  0  0
   -8.6783    5.1111   26.5262 C   0  0  0  0  0  0  0  0  0  0  0  0
   -8.4135    6.3825   26.8152 N   0  0  0  0  0  0  0  0  0  0  0  0
   -7.4119    6.8022   27.6163 C   0  0  0  0  0  0  0  0  0  0  0  0
   -6.7978    5.8544   28.2675 N   0  0  0  0  0  0  0  0  0  0  0  0
   -7.3897    1.6592   27.4664 C   0  0  0  0  0  0  0  0  0  0  0  0
   -7.7326    0.3255   27.2346 C   0  0  0  0  0  0  0  0  0  0  0  0
   -8.9016    0.1112   26.4401 C   0  0  0  0  0  0  0  0  0  0  0  0
   -9.6469    1.0637   25.8829 C   0  0  0  0  0  0  0  0  0  0  0  0
   -6.9461   -0.6976   27.8591 C   0  0  0  0  0  0  0  0  0  0  0  0
   -5.6247   -0.4712   28.1990 C   0  0  0  0  0  0  0  0  0  0  0  0
   -4.9778    0.7584   27.8135 C   0  0  0  0  0  0  0  0  0  0  0  0
   -5.9129    1.9015   27.6330 C   0  0  0  0  0  0  0  0  0  0  0  0
   -3.7098    1.0936   28.3469 C   0  0  0  0  0  0  0  0  0  0  0  0
   -3.0841    0.3695   29.0514 O   0  0  0  0  0  0  0  0  0  0  0  0
   -3.2156    2.1361   27.8846 O   0  0  0  0  0  0  0  0  0  0  0  0
  -11.1951    3.1139   24.6158 C   0  0  0  0  0  0  0  0  0  0  0  0
  -11.0991    3.6791   23.3991 C   0  0  0  0  0  0  0  0  0  0  0  0
  -11.9867    3.4297   22.3753 C   0  0  0  0  0  0  0  0  0  0  0  0
  -12.9224    2.4889   22.6149 C   0  0  0  0  0  0  0  0  0  0  0  0
  -12.1119    2.1409   24.7461 C   0  0  0  0  0  0  0  0  0  0  0  0
  -13.0370    1.8873   23.7859 C   0  0  0  0  0  0  0  0  0  0  0  0
   -2.2189    1.8803   26.8421 C   0  0  0  0  0  0  0  0  0  0  0  0
   -9.3524   -1.3387   26.3192 C   0  0  0  0  0  0  0  0  0  0  0  0
  -10.3032   -1.7270   26.9184 N   0  0  0  0  0  0  0  0  0  0  0  0
  -11.1107   -1.1814   27.5727 C   0  0  0  0  0  0  0  0  0  0  0  0
  -11.8826   -1.1144   28.2692 C   0  0  0  0  0  0  0  0  0  0  0  0
  -12.6217    0.0269   28.8027 C   0  0  0  0  0  0  0  0  0  0  0  0
  -13.6588    0.0731   29.7525 C   0  0  0  0  0  0  0  0  0  0  0  0
  -13.9613   -1.1663   30.3183 C   0  0  0  0  0  0  0  0  0  0  0  0
  -12.4178   -2.2184   29.1985 C   0  0  0  0  0  0  0  0  0  0  0  0
  -11.6799   -3.4758   28.7963 C   0  0  0  0  0  0  0  0  0  0  0  0
  -13.3775   -2.2541   30.1316 C   0  0  0  0  0  0  0  0  0  0  0  0
  -10.6533   -3.8186   29.5901 C   0  0  0  0  0  0  0  0  0  0  0  0
   -9.9063   -5.0066   29.3560 C   0  0  0  0  0  0  0  0  0  0  0  0
 17 19  1  0
 19 20  2  0
 19 21  1  0
  5 22  1  0
 21 28  1  0
 13 29  1  0
 29 30  1  0
 30 31  1  0
 31 32  1  0
 36 37  1  0
 37 39  2  3
 39 40  1  0
  1  2  1  0
  3  5  1  0
  5  6  2  0
  6  7  1  0
 12 15  2  0
 15 16  1  0
 16 17  2  0
 17 18  1  0
 18 11  2  0
 32 33  2  0
 33 34  1  0
 34 35  2  0
 35 38  1  0
 38 36  2  0
 36 32  1  0
 22 23  2  0
 23 24  1  0
 24 25  2  0
 25 27  1  0
 27 26  2  0
 26 22  1  0
  2  3  2  0
  3 14  1  0
 14 13  2  0
 13 12  1  0
 12 11  1  0
 11  2  1  0
  1  4  2  0
  4 10  1  0
 10  9  2  0
  9  8  1  0
  8  7  2  0
  7  1  1  0
M  END
$$$$
