No_9399-complexes_sdf/6BKW-FPZ/2024-09-17-14-21-01/
     RDKit          3D

 28 30  0  0  0  0  0  0  0  0999 V2000
   -7.7129    4.2099   27.0854 C   0  0  0  0  0  0  0  0  0  0  0  0
   -7.7814    5.1722   27.8972 C   0  0  0  0  0  0  0  0  0  0  0  0
   -8.8776    3.8408   26.3416 C   0  0  0  0  0  0  0  0  0  0  0  0
   -9.9844    4.6492   26.4743 C   0  0  0  0  0  0  0  0  0  0  0  0
   -8.8033    6.1375   27.8728 C   0  0  0  0  0  0  0  0  0  0  0  0
   -9.9554    5.8280   27.1736 C   0  0  0  0  0  0  0  0  0  0  0  0
   -8.8740    2.6184   25.5584 C   0  0  0  0  0  0  0  0  0  0  0  0
   -9.7481    2.4811   24.4970 C   0  0  0  0  0  0  0  0  0  0  0  0
   -9.7537    1.3389   23.7601 C   0  0  0  0  0  0  0  0  0  0  0  0
   -8.7872    0.3087   24.0451 C   0  0  0  0  0  0  0  0  0  0  0  0
   -7.9652    0.4384   25.1261 C   0  0  0  0  0  0  0  0  0  0  0  0
   -7.9663    1.5885   25.9116 C   0  0  0  0  0  0  0  0  0  0  0  0
  -10.6209    1.1971   22.5956 C   0  0  0  0  0  0  0  0  0  0  0  0
  -10.7891    2.2092   21.8163 C   0  0  0  0  0  0  0  0  0  0  0  0
  -11.6092    2.1862   20.6448 C   0  0  0  0  0  0  0  0  0  0  0  0
  -12.1397    0.9477   20.2455 C   0  0  0  0  0  0  0  0  0  0  0  0
  -11.0750   -0.0519   22.1639 C   0  0  0  0  0  0  0  0  0  0  0  0
  -11.8565   -0.1483   21.0225 C   0  0  0  0  0  0  0  0  0  0  0  0
   -6.6572    5.6040   28.6079 O   0  0  0  0  0  0  0  0  0  0  0  0
   -7.0024   -0.6126   25.4501 C   0  0  0  0  0  0  0  0  0  0  0  0
   -7.2439   -1.3376   26.1328 O   0  0  0  0  0  0  0  0  0  0  0  0
   -6.0597   -0.7791   24.4438 O   0  0  0  0  0  0  0  0  0  0  0  0
  -12.4792   -1.6576   20.5153 Cl  0  0  0  0  0  0  0  0  0  0  0  0
   -5.9659   -1.6262   23.5469 C   0  0  0  0  0  0  0  0  0  0  0  0
   -5.2484   -2.7516   23.8825 C   0  0  0  0  0  0  0  0  0  0  0  0
   -6.0454   -3.7738   24.4134 C   0  0  0  0  0  0  0  0  0  0  0  0
   -7.2347   -3.7794   24.4945 C   0  0  0  0  0  0  0  0  0  0  0  0
   -7.9690   -3.0631   23.6677 C   0  0  0  0  0  0  0  0  0  0  0  0
  3  7  1  0
  9 13  1  0
  2 19  1  0
 11 20  1  0
 20 21  2  0
 20 22  1  0
 18 23  1  0
 22 24  1  0
 24 25  1  0
 25 26  1  0
 26 27  2  3
 27 28  1  0
 13 14  2  0
 14 15  1  0
 15 16  2  0
 16 18  1  0
 18 17  2  0
 17 13  1  0
  1  2  2  0
  2  5  1  0
  5  6  2  0
  6  4  1  0
  4  3  2  0
  3  1  1  0
  7  8  2  0
  8  9  1  0
  9 10  2  0
 10 11  1  0
 11 12  2  0
 12  7  1  0
M  END
$$$$
