No_9805-complexes_sdf/6BKW-FPZ/2024-09-17-14-21-01/
     RDKit          3D

 16 17  0  0  0  0  0  0  0  0999 V2000
   -7.9040    3.9820   27.1177 C   0  0  0  0  0  0  0  0  0  0  0  0
   -9.0711    4.3164   27.0630 C   0  0  0  0  0  0  0  0  0  0  0  0
   -9.8698    3.9665   25.9495 C   0  0  0  0  0  0  0  0  0  0  0  0
   -7.4046    2.7946   26.4568 C   0  0  0  0  0  0  0  0  0  0  0  0
   -8.3659    2.1310   25.6816 C   0  0  0  0  0  0  0  0  0  0  0  0
   -9.5390    2.7825   25.4030 C   0  0  0  0  0  0  0  0  0  0  0  0
   -7.0213    4.5077   28.0334 F   0  0  0  0  0  0  0  0  0  0  0  0
  -10.4658    2.1703   24.3844 C   0  0  0  0  0  0  0  0  0  0  0  0
  -11.0201    2.6777   23.4710 C   0  0  0  0  0  0  0  0  0  0  0  0
  -11.8290    2.1227   22.4848 C   0  0  0  0  0  0  0  0  0  0  0  0
  -11.9496    0.7095   22.5549 C   0  0  0  0  0  0  0  0  0  0  0  0
  -10.4842    0.7544   24.2422 C   0  0  0  0  0  0  0  0  0  0  0  0
  -11.2497    0.0649   23.4423 C   0  0  0  0  0  0  0  0  0  0  0  0
   -9.4227    5.7241   27.6646 C   0  0  0  0  0  0  0  0  0  0  0  0
  -12.7971    0.0633   21.5079 C   0  0  0  0  0  0  0  0  0  0  0  0
  -13.6600   -0.7642   21.6775 C   0  0  0  0  0  0  0  0  0  0  0  0
  1  7  1  0
  6  8  1  0
  2 14  1  0
 11 15  1  0
 15 16  2  0
  1  2  2  0
  2  3  1  0
  3  6  2  0
  6  5  1  0
  5  4  2  0
  4  1  1  0
  8  9  2  0
  9 10  1  0
 10 11  2  0
 11 13  1  0
 13 12  2  0
 12  8  1  0
M  END
$$$$
