No_9021-complexes_sdf/6BKW-FPZ/2024-09-17-14-21-01/
     RDKit          3D

 14 15  0  0  0  0  0  0  0  0999 V2000
   -7.9040    3.9820   27.1177 C   0  0  0  0  0  0  0  0  0  0  0  0
   -8.2057    2.8231   26.8733 C   0  0  0  0  0  0  0  0  0  0  0  0
   -9.2962    2.4021   26.1155 C   0  0  0  0  0  0  0  0  0  0  0  0
   -8.7358    5.0662   26.5917 C   0  0  0  0  0  0  0  0  0  0  0  0
   -9.7618    4.7023   25.7546 C   0  0  0  0  0  0  0  0  0  0  0  0
  -10.0066    3.4105   25.4922 C   0  0  0  0  0  0  0  0  0  0  0  0
   -8.3466    6.7110   26.9171 Cl  0  0  0  0  0  0  0  0  0  0  0  0
   -9.3219    0.9173   25.8720 C   0  0  0  0  0  0  0  0  0  0  0  0
   -8.6473    0.1119   26.4245 C   0  0  0  0  0  0  0  0  0  0  0  0
   -8.8058   -1.3082   26.3103 C   0  0  0  0  0  0  0  0  0  0  0  0
   -9.8180   -1.7253   25.4821 C   0  0  0  0  0  0  0  0  0  0  0  0
  -10.3440    0.3533   25.0413 C   0  0  0  0  0  0  0  0  0  0  0  0
  -10.5518   -0.8775   24.8549 C   0  0  0  0  0  0  0  0  0  0  0  0
   -6.5956    4.5457   28.1907 Cl  0  0  0  0  0  0  0  0  0  0  0  0
  4  7  1  0
  3  8  1  0
  1 14  1  0
  1  2  2  0
  2  3  1  0
  3  6  2  0
  6  5  1  0
  5  4  2  0
  4  1  1  0
  8  9  2  0
  9 10  1  0
 10 11  2  0
 11 13  1  0
 13 12  2  0
 12  8  1  0
M  END
$$$$
