No_9292-complexes_sdf/6BKW-FPZ/2024-09-17-14-21-01/
     RDKit          3D

 24 28  0  0  0  0  0  0  0  0999 V2000
   -7.2496    3.8871   27.4508 C   0  0  0  0  0  0  0  0  0  0  0  0
   -8.5096    4.0291   27.2770 C   0  0  0  0  0  0  0  0  0  0  0  0
   -9.2677    5.1714   27.5773 C   0  0  0  0  0  0  0  0  0  0  0  0
   -9.2765    2.8248   26.8371 C   0  0  0  0  0  0  0  0  0  0  0  0
  -10.4623    3.0171   26.3236 C   0  0  0  0  0  0  0  0  0  0  0  0
  -10.8972    2.6250   25.3350 C   0  0  0  0  0  0  0  0  0  0  0  0
  -11.3836    2.9387   24.4653 C   0  0  0  0  0  0  0  0  0  0  0  0
  -10.6010    5.3194   27.2422 C   0  0  0  0  0  0  0  0  0  0  0  0
  -11.1098    4.3834   26.5399 C   0  0  0  0  0  0  0  0  0  0  0  0
  -11.8570    2.2125   23.2416 C   0  0  0  0  0  0  0  0  0  0  0  0
   -6.5350    2.7034   27.4845 N   0  0  0  0  0  0  0  0  0  0  0  0
  -11.3857    0.9397   23.2503 C   0  0  0  0  0  0  0  0  0  0  0  0
  -10.4145    1.1341   24.9467 C   0  0  0  0  0  0  0  0  0  0  0  0
   -5.9582    2.0441   28.2109 C   0  0  0  0  0  0  0  0  0  0  0  0
   -5.3932    0.7060   27.7326 C   0  0  0  0  0  0  0  0  0  0  0  0
   -6.0584   -0.0309   26.9745 C   0  0  0  0  0  0  0  0  0  0  0  0
   -5.6979   -1.2965   26.6519 C   0  0  0  0  0  0  0  0  0  0  0  0
   -6.5189   -2.0138   25.7431 C   0  0  0  0  0  0  0  0  0  0  0  0
   -6.4928    4.8632   27.9572 O   0  0  0  0  0  0  0  0  0  0  0  0
   -7.6716   -1.4321   25.1787 C   0  0  0  0  0  0  0  0  0  0  0  0
   -8.0414   -0.1355   25.5780 C   0  0  0  0  0  0  0  0  0  0  0  0
   -7.1946    0.5843   26.4635 C   0  0  0  0  0  0  0  0  0  0  0  0
   -7.4793    1.8438   26.6201 C   0  0  1  0  0  0  0  0  0  0  0  0
   -8.6404    2.3433   26.4609 N   0  0  0  0  0  0  0  0  0  0  0  0
  1  2  1  0
  6  7  1  0
  7 10  2  0
  1 11  1  0
 10 12  1  0
  6 13  1  0
 12 13  2  0
 11 14  1  0
 15 16  1  0
  1 19  2  0
 11 23  1  0
 22 23  1  0
  4 24  1  0
 23 24  1  1
  6  5  1  0
 14 15  1  0
 16 17  2  0
 17 18  1  0
 18 20  2  0
 20 21  1  0
 21 22  2  0
 22 16  1  0
  2  3  2  0
  3  8  1  0
  8  9  2  0
  9  5  1  0
  5  4  2  0
  4  2  1  0
M  END
$$$$
