No_9564-complexes_sdf/6BKW-FPZ/2024-09-17-14-21-01/
     RDKit          3D

 40 43  0  0  0  0  0  0  0  0999 V2000
   -7.2496    3.8871   27.4508 C   0  0  0  0  0  0  0  0  0  0  0  0
   -7.9379    4.9063   27.8518 C   0  0  0  0  0  0  0  0  0  0  0  0
   -9.3460    4.8223   27.8695 C   0  0  0  0  0  0  0  0  0  0  0  0
   -7.8628    2.6163   27.1065 C   0  0  0  0  0  0  0  0  0  0  0  0
   -9.2787    2.5744   27.1970 C   0  0  0  0  0  0  0  0  0  0  0  0
  -10.0108    3.6770   27.6340 C   0  0  0  0  0  0  0  0  0  0  0  0
  -11.4834    3.5674   27.7432 C   0  0  0  0  0  0  0  0  0  0  0  0
  -11.9395    2.6434   28.4995 C   0  0  0  0  0  0  0  0  0  0  0  0
  -13.2991    2.5755   28.9391 C   0  0  0  0  0  0  0  0  0  0  0  0
  -14.1285    3.5751   28.4315 C   0  0  0  0  0  0  0  0  0  0  0  0
  -13.6635    4.5859   27.6241 C   0  0  0  0  0  0  0  0  0  0  0  0
  -12.2733    4.7017   27.3545 C   0  0  0  0  0  0  0  0  0  0  0  0
   -7.0925    1.4743   26.7694 C   0  0  0  0  0  0  0  0  0  0  0  0
   -6.0573    1.0003   27.6697 C   0  0  0  0  0  0  0  0  0  0  0  0
   -5.5706    0.0711   27.8309 C   0  0  0  0  0  0  0  0  0  0  0  0
   -6.0025   -1.0323   26.9948 C   0  0  0  0  0  0  0  0  0  0  0  0
   -7.6723    0.4473   26.0840 C   0  0  0  0  0  0  0  0  0  0  0  0
   -7.0456   -0.7922   26.1058 C   0  0  0  0  0  0  0  0  0  0  0  0
   -4.3422   -0.2639   28.7179 C   0  0  0  0  0  0  0  0  0  0  0  0
   -4.1727    0.4364   29.7873 N   0  0  0  0  0  0  0  0  0  0  0  0
   -3.5643   -1.1992   28.4889 O   0  0  0  0  0  0  0  0  0  0  0  0
   -7.3223    6.0871   28.1265 O   0  0  0  0  0  0  0  0  0  0  0  0
   -3.1434    0.2591   30.7868 C   0  0  0  0  0  0  0  0  0  0  0  0
   -3.5490   -0.7829   31.7854 C   0  0  1  0  0  0  0  0  0  0  0  0
   -3.5993   -1.9787   31.4964 C   0  0  0  0  0  0  0  0  0  0  0  0
   -2.8591   -2.7522   31.4728 C   0  0  0  0  0  0  0  0  0  0  0  0
   -1.4619   -2.3549   31.8251 C   0  0  0  0  0  0  0  0  0  0  0  0
   -1.3119   -1.9193   33.1960 C   0  0  0  0  0  0  0  0  0  0  0  0
   -2.0196   -0.5952   33.4776 C   0  0  0  0  0  0  0  0  0  0  0  0
   -3.0036   -0.0275   32.8429 C   0  0  0  0  0  0  0  0  0  0  0  0
   -1.4621    0.0843   34.5630 O   0  0  0  0  0  0  0  0  0  0  0  0
  -13.8450    1.4290   29.7035 C   0  0  0  0  0  0  0  0  0  0  0  0
  -14.8235    1.1486   29.4062 O   0  0  0  0  0  0  0  0  0  0  0  0
  -13.0859    0.8480   30.5393 O   0  0  0  0  0  0  0  0  0  0  0  0
   -2.0465   -0.1760   35.8221 C   0  0  0  0  0  0  0  0  0  0  0  0
   -1.2160   -1.0384   36.5877 C   0  0  0  0  0  0  0  0  0  0  0  0
   -1.7343   -1.8423   37.1516 O   0  0  0  0  0  0  0  0  0  0  0  0
    0.0300   -0.5039   36.9449 N   0  0  0  0  0  0  0  0  0  0  0  0
    0.9709   -1.3144   37.7034 C   0  0  0  0  0  0  0  0  0  0  0  0
    2.0052   -0.8039   37.7701 C   0  0  0  0  0  0  0  0  0  0  0  0
  6  7  1  0
  4 13  1  0
 15 19  1  0
 19 20  1  0
 19 21  2  0
  2 22  1  0
 20 23  1  0
 24 23  1  6
 24 25  1  0
 25 26  2  0
 26 27  1  0
 27 28  2  0
 28 29  1  0
 24 30  1  0
 29 30  1  0
 29 31  1  0
  9 32  1  0
 32 33  2  0
 32 34  1  0
 31 35  1  0
 35 36  1  0
 36 37  2  0
 36 38  1  0
 38 39  1  0
 39 40  2  0
  1  2  2  0
  2  3  1  0
  3  6  2  0
  6  5  1  0
  5  4  2  0
  4  1  1  0
 13 14  2  0
 14 15  1  0
 15 16  2  0
 16 18  1  0
 18 17  2  0
 17 13  1  0
  7  8  2  0
  8  9  1  0
  9 10  2  0
 10 11  1  0
 11 12  2  0
 12  7  1  0
M  END
$$$$
