No_926-complexes_sdf/6BKW-FPZ/2024-09-17-14-21-01/
     RDKit          3D

 17 17  0  0  0  0  0  0  0  0999 V2000
   -7.9040    3.9820   27.1177 C   0  0  0  0  0  0  0  0  0  0  0  0
   -8.2057    2.8231   26.8733 C   0  0  0  0  0  0  0  0  0  0  0  0
   -8.7695    5.0740   26.7916 C   0  0  0  0  0  0  0  0  0  0  0  0
   -8.4337    6.4678   27.0913 C   0  0  0  0  0  0  0  0  0  0  0  0
   -9.3742    2.4311   26.2346 C   0  0  0  0  0  0  0  0  0  0  0  0
  -10.2395    3.4267   25.8887 C   0  0  0  0  0  0  0  0  0  0  0  0
   -9.9567    4.7548   26.1374 C   0  0  0  0  0  0  0  0  0  0  0  0
   -8.8469    7.3199   26.4450 F   0  0  0  0  0  0  0  0  0  0  0  0
   -7.0078    6.5565   27.1206 F   0  0  0  0  0  0  0  0  0  0  0  0
   -7.2479    1.6777   27.2902 C   0  0  0  0  0  0  0  0  0  0  0  0
   -7.5589    0.3905   27.1772 N   0  0  0  0  0  0  0  0  0  0  0  0
   -6.0051    1.9463   27.7447 N   0  0  0  0  0  0  0  0  0  0  0  0
   -8.5803   -0.2439   26.7137 C   0  0  0  0  0  0  0  0  0  0  0  0
   -8.5156   -1.7780   26.7616 C   0  0  0  0  0  0  0  0  0  0  0  0
   -8.7816    6.6142   28.4520 F   0  0  0  0  0  0  0  0  0  0  0  0
   -5.1154    1.0699   28.0407 C   0  0  0  0  0  0  0  0  0  0  0  0
   -5.5601   -0.2281   28.0102 C   0  0  0  0  0  0  0  0  0  0  0  0
  3  4  1  0
  4  8  1  0
  4  9  1  0
  2 10  1  0
 10 11  2  3
 10 12  1  0
 11 13  1  0
 13 14  1  0
  4 15  1  0
 12 16  2  3
 16 17  1  0
  1  2  2  0
  2  5  1  0
  5  6  2  0
  6  7  1  0
  7  3  2  0
  3  1  1  0
M  END
$$$$
