No_9786-complexes_sdf/6BKW-FPZ/2024-09-17-14-21-01/
     RDKit          3D

 28 32  0  0  0  0  0  0  0  0999 V2000
   -7.7129    4.2099   27.0854 C   0  0  0  0  0  0  0  0  0  0  0  0
   -7.7814    5.1722   27.8972 C   0  0  0  0  0  0  0  0  0  0  0  0
   -7.3155    2.9699   27.6145 C   0  0  0  0  0  0  0  0  0  0  0  0
   -7.6814    1.8188   26.9581 C   0  0  0  0  0  0  0  0  0  0  0  0
   -8.6377    1.9131   25.9324 C   0  0  0  0  0  0  0  0  0  0  0  0
   -9.1866    3.0673   25.6037 C   0  0  0  0  0  0  0  0  0  0  0  0
   -8.8394    4.1752   26.2513 C   0  0  0  0  0  0  0  0  0  0  0  0
   -7.0891    5.2647   29.0138 N   0  0  0  0  0  0  0  0  0  0  0  0
   -8.3142    6.5375   27.4389 C   0  0  0  0  0  0  0  0  0  0  0  0
   -9.2889    6.5509   26.6043 C   0  0  0  0  0  0  0  0  0  0  0  0
   -9.5334    5.4069   25.8849 C   0  0  0  0  0  0  0  0  0  0  0  0
   -7.0194    0.5324   27.2844 C   0  0  1  0  0  0  0  0  0  0  0  0
   -5.8672    0.5067   27.8830 N   0  0  0  0  0  0  0  0  0  0  0  0
   -5.2987   -0.6542   28.2865 C   0  0  0  0  0  0  0  0  0  0  0  0
   -6.0109   -1.7387   28.0511 N   0  0  0  0  0  0  0  0  0  0  0  0
   -7.2907   -0.9209   27.4393 C   0  0  0  0  0  0  0  0  0  0  0  0
   -3.9050   -0.7535   28.9020 C   0  0  0  0  0  0  0  0  0  0  0  0
   -3.0077   -1.4982   28.2577 C   0  0  0  0  0  0  0  0  0  0  0  0
   -1.7119   -1.4206   28.7016 C   0  0  0  0  0  0  0  0  0  0  0  0
   -3.5701    0.0596   30.0099 C   0  0  0  0  0  0  0  0  0  0  0  0
   -2.3133   -0.0828   30.6631 C   0  0  0  0  0  0  0  0  0  0  0  0
   -1.3769   -0.8228   29.9605 C   0  0  0  0  0  0  0  0  0  0  0  0
   -6.0215   -2.9837   28.2364 C   0  0  0  0  0  0  0  0  0  0  0  0
   -6.5215   -3.7270   27.3144 C   0  0  0  0  0  0  0  0  0  0  0  0
   -6.5010   -5.0118   27.5022 C   0  0  0  0  0  0  0  0  0  0  0  0
   -6.4736   -3.2365   29.6150 C   0  0  0  0  0  0  0  0  0  0  0  0
   -6.2539   -4.6735   30.0069 C   0  0  0  0  0  0  0  0  0  0  0  0
   -6.8116   -5.5538   28.8906 C   0  0  0  0  0  0  0  0  0  0  0  0
 12  4  1  1
 12 13  1  0
 13 14  2  0
 14 15  1  0
 12 16  1  0
 15 16  1  0
 14 17  1  0
 15 23  1  0
  8  2  1  0
 23 24  2  0
 24 25  1  0
 25 28  2  0
 28 27  1  0
 27 26  2  0
 26 23  1  0
  1  2  2  0
  2  9  1  0
  9 10  2  0
 10 11  1  0
 11  7  2  0
 17 18  2  0
 18 19  1  0
 19 22  2  0
 22 21  1  0
 21 20  2  0
 20 17  1  0
  1  3  1  0
  3  4  2  0
  4  5  1  0
  5  6  2  0
  6  7  1  0
  7  1  1  0
M  END
$$$$
