No_9431-complexes_sdf/6BKW-FPZ/2024-09-17-14-21-01/
     RDKit          3D

 20 23  0  0  0  0  0  0  0  0999 V2000
   -7.9040    3.9820   27.1177 C   0  0  0  0  0  0  0  0  0  0  0  0
   -7.8663    4.8694   27.9238 C   0  0  0  0  0  0  0  0  0  0  0  0
   -9.0491    3.8523   26.2542 C   0  0  0  0  0  0  0  0  0  0  0  0
   -8.7661    5.9491   27.9690 C   0  0  0  0  0  0  0  0  0  0  0  0
   -9.9295    4.8502   26.2323 C   0  0  0  0  0  0  0  0  0  0  0  0
   -9.8077    5.9288   27.0933 C   0  0  0  0  0  0  0  0  0  0  0  0
   -7.0120    2.8934   27.1747 N   0  0  0  0  0  0  0  0  0  0  0  0
   -7.2911    1.5905   26.8161 C   0  0  0  0  0  0  0  0  0  0  0  0
   -6.9059    0.6189   27.6527 C   0  0  0  0  0  0  0  0  0  0  0  0
   -7.2741   -0.7402   27.4208 C   0  0  0  0  0  0  0  0  0  0  0  0
   -8.1474   -0.9364   26.3350 C   0  0  0  0  0  0  0  0  0  0  0  0
   -8.6328    0.0677   25.5975 C   0  0  0  0  0  0  0  0  0  0  0  0
   -8.2476    1.4055   25.8914 C   0  0  0  0  0  0  0  0  0  0  0  0
   -9.1107    2.5072   25.6411 C   0  0  0  0  0  0  0  0  0  0  0  0
  -10.2058    2.4048   24.6003 C   0  0  0  0  0  0  0  0  0  0  0  0
  -11.4772    2.3807   24.8802 C   0  0  0  0  0  0  0  0  0  0  0  0
   -9.7324    2.2614   23.2747 C   0  0  0  0  0  0  0  0  0  0  0  0
  -10.5370    2.3063   22.1960 C   0  0  0  0  0  0  0  0  0  0  0  0
  -12.3956    2.4005   23.7780 C   0  0  0  0  0  0  0  0  0  0  0  0
  -11.9099    2.3194   22.4312 C   0  0  0  0  0  0  0  0  0  0  0  0
  1  7  1  0
  7  8  1  0
  3 14  1  0
 13 14  1  0
 14 15  1  0
  1  2  2  0
  2  4  1  0
  4  6  2  0
  6  5  1  0
  5  3  2  0
  3  1  1  0
 15 16  2  0
 16 19  1  0
 19 20  2  0
 20 18  1  0
 18 17  2  0
 17 15  1  0
  8  9  2  0
  9 10  1  0
 10 11  2  0
 11 12  1  0
 12 13  2  0
 13  8  1  0
M  END
$$$$
