No_9117-complexes_sdf/6BKW-FPZ/2024-09-17-14-21-01/
     RDKit          3D

 16 16  0  0  0  0  0  0  0  0999 V2000
   -7.9040    3.9820   27.1177 C   0  0  0  0  0  0  0  0  0  0  0  0
   -8.2057    2.8231   26.8733 C   0  0  0  0  0  0  0  0  0  0  0  0
   -8.7695    5.0740   26.7916 C   0  0  0  0  0  0  0  0  0  0  0  0
   -9.9618    4.7598   26.1630 C   0  0  0  0  0  0  0  0  0  0  0  0
   -9.4200    2.4524   26.2849 C   0  0  0  0  0  0  0  0  0  0  0  0
  -10.2590    3.4815   25.9250 C   0  0  0  0  0  0  0  0  0  0  0  0
   -8.3837    6.4702   27.0872 C   0  0  0  0  0  0  0  0  0  0  0  0
   -8.3914    6.7863   28.2307 F   0  0  0  0  0  0  0  0  0  0  0  0
   -7.1442    6.7635   26.5141 F   0  0  0  0  0  0  0  0  0  0  0  0
   -9.2357    7.3478   26.4176 F   0  0  0  0  0  0  0  0  0  0  0  0
   -7.2820    1.6781   27.3295 C   0  0  0  0  0  0  0  0  0  0  0  0
   -7.6454    0.3125   27.2534 C   0  0  0  0  0  0  0  0  0  0  0  0
   -6.7508   -0.6370   27.6749 C   0  0  0  0  0  0  0  0  0  0  0  0
   -5.4521   -0.2268   28.1244 C   0  0  0  0  0  0  0  0  0  0  0  0
   -5.1072    1.1283   28.1323 C   0  0  0  0  0  0  0  0  0  0  0  0
   -5.9391    2.0355   27.7615 C   0  0  0  0  0  0  0  0  0  0  0  0
  3  7  1  0
  7  8  1  0
  7  9  1  0
  7 10  1  0
  2 11  1  0
 11 12  2  3
 12 13  1  0
 13 14  2  3
 14 15  1  0
 15 16  2  0
  1  2  2  0
  2  5  1  0
  5  6  2  0
  6  4  1  0
  4  3  2  0
  3  1  1  0
M  END
$$$$
