No_9861-complexes_sdf/6BKW-FPZ/2024-09-17-14-21-01/
     RDKit          3D

 29 32  0  0  0  0  0  0  0  0999 V2000
   -7.7129    4.2099   27.0854 C   0  0  0  0  0  0  0  0  0  0  0  0
   -8.2112    3.0637   26.9225 C   0  0  0  0  0  0  0  0  0  0  0  0
   -7.5138    1.9223   27.4249 C   0  0  0  0  0  0  0  0  0  0  0  0
   -8.5309    5.4147   26.8151 C   0  0  0  0  0  0  0  0  0  0  0  0
   -9.6817    5.2393   26.1100 C   0  0  0  0  0  0  0  0  0  0  0  0
  -10.1032    3.9957   25.8534 C   0  0  0  0  0  0  0  0  0  0  0  0
   -9.4035    2.8430   26.2573 C   0  0  0  0  0  0  0  0  0  0  0  0
   -7.9625    0.5664   27.2655 C   0  0  0  0  0  0  0  0  0  0  0  0
   -9.2649    0.5125   26.5943 C   0  0  0  0  0  0  0  0  0  0  0  0
   -9.9476    1.5566   26.0984 C   0  0  0  0  0  0  0  0  0  0  0  0
   -7.8759    6.9937   27.1163 Cl  0  0  0  0  0  0  0  0  0  0  0  0
   -7.2800   -0.5322   27.8127 C   0  0  0  0  0  0  0  0  0  0  0  0
   -6.3772   -0.2310   28.5728 F   0  0  0  0  0  0  0  0  0  0  0  0
   -6.7293   -1.2770   26.7886 F   0  0  0  0  0  0  0  0  0  0  0  0
   -8.1989   -1.3674   28.4381 F   0  0  0  0  0  0  0  0  0  0  0  0
  -11.3574    3.9187   25.0661 C   0  0  0  0  0  0  0  0  0  0  0  0
  -11.4116    3.9734   23.6771 C   0  0  0  0  0  0  0  0  0  0  0  0
  -12.5147    4.1574   23.0017 C   0  0  0  0  0  0  0  0  0  0  0  0
  -12.5423    3.7445   25.7638 C   0  0  0  0  0  0  0  0  0  0  0  0
  -13.7632    3.9487   25.0940 C   0  0  0  0  0  0  0  0  0  0  0  0
  -13.7340    4.1731   23.7089 C   0  0  0  0  0  0  0  0  0  0  0  0
  -14.8900    4.3341   22.9895 O   0  0  0  0  0  0  0  0  0  0  0  0
  -15.6420    3.3025   22.8596 C   0  0  0  0  0  0  0  0  0  0  0  0
  -15.5866    2.2069   23.4211 C   0  0  0  0  0  0  0  0  0  0  0  0
  -16.4563    1.1513   23.1038 C   0  0  0  0  0  0  0  0  0  0  0  0
  -16.7080    3.5098   21.8683 C   0  0  0  0  0  0  0  0  0  0  0  0
  -17.5583    2.5105   21.5438 C   0  0  0  0  0  0  0  0  0  0  0  0
  -17.4323    1.3074   22.2094 C   0  0  0  0  0  0  0  0  0  0  0  0
  -18.6247   -0.0564   21.7752 Br  0  0  0  0  0  0  0  0  0  0  0  0
  4 11  1  0
  8 12  1  0
 12 13  1  0
 12 14  1  0
 12 15  1  0
  6 16  1  0
 21 22  1  0
 22 23  1  0
 28 29  1  0
 23 24  2  0
 24 25  1  0
 25 28  2  0
 28 27  1  0
 27 26  2  0
 26 23  1  0
  1  2  2  0
  7  6  2  0
  6  5  1  0
  5  4  2  0
  4  1  1  0
 16 17  2  0
 17 18  1  0
 18 21  2  0
 21 20  1  0
 20 19  2  0
 19 16  1  0
  2  3  1  0
  3  8  2  0
  8  9  1  0
  9 10  2  0
 10  7  1  0
  7  2  1  0
M  END
$$$$
