No_9799-complexes_sdf/6BKW-FPZ/2024-09-17-14-21-01/
     RDKit          3D

 19 21  0  0  0  0  0  0  0  0999 V2000
   -7.9040    3.9820   27.1177 C   0  0  0  0  0  0  0  0  0  0  0  0
   -7.8663    4.8694   27.9238 C   0  0  0  0  0  0  0  0  0  0  0  0
   -9.0491    3.8523   26.2542 C   0  0  0  0  0  0  0  0  0  0  0  0
   -8.7661    5.9491   27.9690 C   0  0  0  0  0  0  0  0  0  0  0  0
   -9.9295    4.8502   26.2323 C   0  0  0  0  0  0  0  0  0  0  0  0
   -9.8077    5.9288   27.0933 C   0  0  0  0  0  0  0  0  0  0  0  0
   -6.8002    2.6256   27.2024 Cl  0  0  0  0  0  0  0  0  0  0  0  0
   -9.3444    2.7730   25.2947 C   0  0  0  0  0  0  0  0  0  0  0  0
  -10.1578    2.9705   24.2304 C   0  0  0  0  0  0  0  0  0  0  0  0
  -10.3920    1.9030   23.3483 C   0  0  0  0  0  0  0  0  0  0  0  0
   -9.6189    0.6875   23.4951 C   0  0  0  0  0  0  0  0  0  0  0  0
   -8.7538    0.5426   24.5441 C   0  0  0  0  0  0  0  0  0  0  0  0
   -8.5452    1.5393   25.4253 C   0  0  0  0  0  0  0  0  0  0  0  0
   -8.0147   -0.7088   24.6564 C   0  0  0  0  0  0  0  0  0  0  0  0
   -7.3882   -1.0611   25.7832 C   0  0  0  0  0  0  0  0  0  0  0  0
   -7.7976   -1.4901   23.4836 C   0  0  0  0  0  0  0  0  0  0  0  0
   -6.5533   -1.9888   25.9712 C   0  0  0  0  0  0  0  0  0  0  0  0
   -6.8737   -2.6083   23.6019 C   0  0  0  0  0  0  0  0  0  0  0  0
   -6.2852   -2.8704   24.8049 C   0  0  0  0  0  0  0  0  0  0  0  0
  1  7  1  0
  3  8  1  0
 12 14  1  0
 14 15  2  0
 15 17  1  0
 17 19  2  0
 19 18  1  0
 18 16  2  0
 16 14  1  0
  1  2  2  0
  2  4  1  0
  4  6  2  0
  6  5  1  0
  5  3  2  0
  3  1  1  0
  8  9  2  0
  9 10  1  0
 10 11  2  0
 11 12  1  0
 12 13  2  0
 13  8  1  0
M  END
$$$$
