No_9737-complexes_sdf/6BKW-FPZ/2024-09-17-14-21-01/
     RDKit          3D

 40 45  0  0  0  0  0  0  0  0999 V2000
   -7.9040    3.9820   27.1177 C   0  0  0  0  0  0  0  0  0  0  0  0
   -8.2057    2.8231   26.8733 C   0  0  0  0  0  0  0  0  0  0  0  0
   -7.4766    1.7477   27.4593 C   0  0  0  0  0  0  0  0  0  0  0  0
   -8.7468    5.1251   26.6967 C   0  0  0  0  0  0  0  0  0  0  0  0
   -9.7234    4.8589   25.8202 C   0  0  0  0  0  0  0  0  0  0  0  0
   -9.9711    3.5858   25.4266 C   0  0  0  0  0  0  0  0  0  0  0  0
   -9.2266    2.4957   25.9600 C   0  0  0  0  0  0  0  0  0  0  0  0
   -6.1127    1.9031   27.8472 C   0  0  0  0  0  0  0  0  0  0  0  0
   -5.3493    0.8225   28.3589 C   0  0  0  0  0  0  0  0  0  0  0  0
   -5.8541   -0.4405   28.4024 C   0  0  0  0  0  0  0  0  0  0  0  0
   -7.8845    0.3835   27.4449 C   0  0  0  0  0  0  0  0  0  0  0  0
   -7.1681   -0.6267   27.9790 C   0  0  0  0  0  0  0  0  0  0  0  0
   -8.4097    6.5092   27.1062 C   0  0  0  0  0  0  0  0  0  0  0  0
   -8.6353    7.5380   26.4293 N   0  0  0  0  0  0  0  0  0  0  0  0
   -7.6052    6.5700   28.2064 N   0  0  0  0  0  0  0  0  0  0  0  0
   -3.7109    1.1926   28.8519 Cl  0  0  0  0  0  0  0  0  0  0  0  0
  -11.0188    3.3239   24.4336 C   0  0  0  0  0  0  0  0  0  0  0  0
  -12.2701    3.1522   24.7597 C   0  0  0  0  0  0  0  0  0  0  0  0
  -10.6526    3.2815   23.0537 C   0  0  0  0  0  0  0  0  0  0  0  0
  -11.4752    3.1748   22.0104 C   0  0  0  0  0  0  0  0  0  0  0  0
  -13.2697    3.0332   23.7351 C   0  0  0  0  0  0  0  0  0  0  0  0
  -12.8557    3.0715   22.4033 C   0  0  0  0  0  0  0  0  0  0  0  0
   -7.7483   -1.9672   28.0948 C   0  0  1  0  0  0  0  0  0  0  0  0
   -8.2808   -2.3614   29.2283 C   0  0  0  0  0  0  0  0  0  0  0  0
   -9.0528   -3.5182   29.4485 C   0  0  0  0  0  0  0  0  0  0  0  0
   -9.6685   -3.8060   30.6728 C   0  0  0  0  0  0  0  0  0  0  0  0
   -9.4050   -2.9697   31.7734 C   0  0  0  0  0  0  0  0  0  0  0  0
   -8.4908   -1.9662   31.6772 C   0  0  0  0  0  0  0  0  0  0  0  0
   -7.9565   -1.6454   30.5323 C   0  0  0  0  0  0  0  0  0  0  0  0
   -8.7618   -2.1631   26.9393 C   0  0  0  0  0  0  0  0  0  0  0  0
   -8.3646   -3.1458   26.0177 C   0  0  0  0  0  0  0  0  0  0  0  0
   -7.1360   -3.7728   26.1379 C   0  0  0  0  0  0  0  0  0  0  0  0
   -6.2736   -3.5936   27.1592 C   0  0  0  0  0  0  0  0  0  0  0  0
   -6.6132   -2.6639   28.1880 C   0  0  1  0  0  0  0  0  0  0  0  0
   -5.4066   -1.7375   28.4580 C   0  0  2  0  0  0  0  0  0  0  0  0
   -4.6580   -1.9635   29.8263 C   0  0  0  0  0  0  0  0  0  0  0  0
   -4.2249   -1.8872   27.3268 C   0  0  0  0  0  0  0  0  0  0  0  0
   -4.4792   -1.1902   30.7589 C   0  0  0  0  0  0  0  0  0  0  0  0
   -3.9171   -1.5027   31.9958 C   0  0  0  0  0  0  0  0  0  0  0  0
   -3.5160   -2.7639   32.2245 C   0  0  0  0  0  0  0  0  0  0  0  0
  2  3  1  0
  4 13  1  0
 13 14  2  0
 13 15  1  0
  9 16  1  0
  6 17  1  0
 12 23  1  0
 23 24  1  1
 23 30  1  0
 31 32  1  0
 23 34  1  0
 34 33  1  6
 10 35  1  0
 34 35  1  0
 35 36  1  0
 35 37  1  6
 36 38  1  0
 38 39  2  3
 39 40  1  0
 30 31  1  0
 32 33  1  0
 24 25  2  0
 25 26  1  0
 26 27  2  0
 27 28  1  0
 28 29  2  0
 29 24  1  0
 17 18  2  0
 18 21  1  0
 21 22  2  0
 22 20  1  0
 20 19  2  0
 19 17  1  0
  1  2  2  0
  2  7  1  0
  7  6  2  0
  6  5  1  0
  5  4  2  0
  4  1  1  0
  3  8  2  0
  8  9  1  0
  9 10  2  0
 10 12  1  0
 12 11  2  0
 11  3  1  0
M  END
$$$$
