No_9616-complexes_sdf/6BKW-FPZ/2024-09-17-14-21-01/
     RDKit          3D

 17 20  0  0  0  0  0  0  0  0999 V2000
   -7.7129    4.2099   27.0854 C   0  0  0  0  0  0  0  0  0  0  0  0
   -8.2112    3.0637   26.9225 C   0  0  1  0  0  0  0  0  0  0  0  0
   -8.4224    5.2106   27.8516 C   0  0  0  0  0  0  0  0  0  0  0  0
   -7.4917    1.9381   26.3986 C   0  0  0  0  0  0  0  0  0  0  0  0
   -9.7695    5.0306   28.1322 C   0  0  0  0  0  0  0  0  0  0  0  0
   -9.5975    2.7583   27.3362 C   0  0  1  0  0  0  0  0  0  0  0  0
  -10.3362    3.8115   27.9177 C   0  0  1  0  0  0  0  0  0  0  0  0
   -8.0842    0.8648   25.7929 C   0  0  0  0  0  0  0  0  0  0  0  0
  -10.1498    1.5198   27.0829 C   0  0  0  0  0  0  0  0  0  0  0  0
  -11.4340    1.1648   27.6233 C   0  0  0  0  0  0  0  0  0  0  0  0
   -9.4085    0.4942   26.4487 C   0  0  0  0  0  0  0  0  0  0  0  0
  -11.6560    3.5525   28.4561 C   0  0  0  0  0  0  0  0  0  0  0  0
  -11.9806   -0.1205   27.5948 C   0  0  0  0  0  0  0  0  0  0  0  0
  -12.1481    2.2341   28.3581 C   0  0  1  0  0  0  0  0  0  0  0  0
  -13.2373   -0.3090   27.9773 C   0  0  0  0  0  0  0  0  0  0  0  0
  -13.4459    1.9312   28.8674 C   0  0  0  0  0  0  0  0  0  0  0  0
  -13.9644    0.6320   28.7359 C   0  0  0  0  0  0  0  0  0  0  0  0
  2  1  1  1
  1  3  2  0
  2  4  1  0
  3  5  1  0
  2  6  1  0
  7  5  1  1
  6  7  1  0
  4  8  2  0
  6  9  1  6
  9 10  2  0
  8 11  1  0
  9 11  1  0
  7 12  1  0
 10 13  1  0
 10 14  1  0
 14 12  1  6
 13 15  2  0
 14 16  1  0
 15 17  1  0
 16 17  2  0
M  END
$$$$
