No_9525-complexes_sdf/6BKW-FPZ/2024-09-17-14-21-01/
     RDKit          3D

 27 30  0  0  0  0  0  0  0  0999 V2000
   -7.7129    4.2099   27.0854 C   0  0  0  0  0  0  0  0  0  0  0  0
   -8.2112    3.0637   26.9225 C   0  0  0  0  0  0  0  0  0  0  0  0
   -8.5108    5.3904   26.9436 C   0  0  0  0  0  0  0  0  0  0  0  0
   -9.7256    5.1955   26.3518 C   0  0  0  0  0  0  0  0  0  0  0  0
   -9.4995    2.8258   26.4878 C   0  0  0  0  0  0  0  0  0  0  0  0
  -10.2542    3.9691   26.2055 C   0  0  0  0  0  0  0  0  0  0  0  0
   -7.7981    6.9684   27.2557 P   0  0  0  0  0  0  0  0  0  0  0  0
   -6.4117    6.8573   27.3526 O   0  0  0  0  0  0  0  0  0  0  0  0
   -8.2224    7.7295   25.9066 O   0  0  0  0  0  0  0  0  0  0  0  0
   -8.6416    7.4816   28.3207 O   0  0  0  0  0  0  0  0  0  0  0  0
   -7.3762    1.8213   27.2741 C   0  0  0  0  0  0  0  0  0  0  0  0
   -7.8075    0.5193   27.1637 C   0  0  0  0  0  0  0  0  0  0  0  0
   -9.2141    0.4004   26.9384 C   0  0  0  0  0  0  0  0  0  0  0  0
   -9.9847    1.4659   26.5092 C   0  0  0  0  0  0  0  0  0  0  0  0
   -7.0242   -0.5527   27.6397 C   0  0  0  0  0  0  0  0  0  0  0  0
   -5.7268   -0.3237   28.0085 C   0  0  0  0  0  0  0  0  0  0  0  0
   -4.8437   -1.3785   28.3830 C   0  0  0  0  0  0  0  0  0  0  0  0
   -3.5151   -0.9914   28.8019 C   0  0  0  0  0  0  0  0  0  0  0  0
   -3.0734    0.3265   28.7008 C   0  0  0  0  0  0  0  0  0  0  0  0
   -3.9707    1.3105   28.3425 C   0  0  0  0  0  0  0  0  0  0  0  0
   -5.2140    1.0293   28.0307 C   0  0  0  0  0  0  0  0  0  0  0  0
   -6.1287    2.0380   27.6218 N   0  0  0  0  0  0  0  0  0  0  0  0
   -7.5647   -1.9011   27.5836 C   0  0  0  0  0  0  0  0  0  0  0  0
   -8.0721   -2.4580   28.5488 C   0  0  0  0  0  0  0  0  0  0  0  0
   -8.2048   -1.8476   29.9045 C   0  0  0  0  0  0  0  0  0  0  0  0
   -8.7390   -2.5835   31.0234 C   0  0  0  0  0  0  0  0  0  0  0  0
   -9.3717   -3.7973   30.7390 C   0  0  0  0  0  0  0  0  0  0  0  0
  3  7  1  0
  7  8  1  0
  7  9  2  0
  7 10  1  0
  2 11  1  0
 12 13  1  0
  5 14  1  0
 13 14  1  0
 15 23  1  0
 23 24  2  3
 24 25  1  0
 25 26  2  3
 26 27  1  0
 11 12  2  0
 12 15  1  0
 15 16  2  0
 21 22  2  0
 22 11  1  0
  1  2  2  0
  2  5  1  0
  5  6  2  0
  6  4  1  0
  4  3  2  0
  3  1  1  0
 16 17  1  0
 17 18  2  0
 18 19  1  0
 19 20  2  0
 20 21  1  0
 21 16  1  0
M  END
$$$$
