No_9676-complexes_sdf/6BKW-FPZ/2024-09-17-14-21-01/
     RDKit          3D

 28 32  0  0  0  0  0  0  0  0999 V2000
   -7.9040    3.9820   27.1177 C   0  0  0  0  0  0  0  0  0  0  0  0
   -9.0711    4.3164   27.0630 C   0  0  0  0  0  0  0  0  0  0  0  0
   -9.5182    5.5541   27.5777 C   0  0  0  0  0  0  0  0  0  0  0  0
   -6.9424    4.7983   27.8424 C   0  0  0  0  0  0  0  0  0  0  0  0
   -7.3526    5.9739   28.3909 C   0  0  0  0  0  0  0  0  0  0  0  0
   -8.6479    6.3742   28.2169 C   0  0  0  0  0  0  0  0  0  0  0  0
  -10.0793    3.4689   26.3368 C   0  0  0  0  0  0  0  0  0  0  0  0
   -9.6567    2.5965   25.4484 C   0  0  0  0  0  0  0  0  0  0  0  0
   -8.2649    2.4937   25.2884 C   0  0  0  0  0  0  0  0  0  0  0  0
   -7.4088    3.0234   26.2494 C   0  0  0  0  0  0  0  0  0  0  0  0
  -10.4854    1.8235   24.5825 C   0  0  0  0  0  0  0  0  0  0  0  0
  -10.1045    1.3365   23.4981 C   0  0  0  0  0  0  0  0  0  0  0  0
  -10.9378    0.6831   22.5880 C   0  0  0  0  0  0  0  0  0  0  0  0
  -12.2538    0.5189   22.9163 C   0  0  0  0  0  0  0  0  0  0  0  0
  -11.8525    1.7630   24.5950 C   0  0  0  0  0  0  0  0  0  0  0  0
  -12.7087    1.1290   23.9202 C   0  0  0  0  0  0  0  0  0  0  0  0
  -14.1790    1.0511   24.1983 C   0  0  0  0  0  0  0  0  0  0  0  0
  -14.6594    1.3251   25.4501 C   0  0  0  0  0  0  0  0  0  0  0  0
  -13.7860    2.1460   26.2617 C   0  0  0  0  0  0  0  0  0  0  0  0
  -12.5234    2.3154   26.0553 C   0  0  0  0  0  0  0  0  0  0  0  0
  -14.3717    2.7022   27.5660 C   0  0  0  0  0  0  0  0  0  0  0  0
  -15.3395    3.2385   27.6210 F   0  0  0  0  0  0  0  0  0  0  0  0
  -13.4172    3.5826   28.1445 F   0  0  0  0  0  0  0  0  0  0  0  0
  -14.2269    1.6545   28.4989 F   0  0  0  0  0  0  0  0  0  0  0  0
  -15.0580    0.3504   23.2972 C   0  0  0  0  0  0  0  0  0  0  0  0
  -16.3749    0.5853   23.3876 C   0  0  0  0  0  0  0  0  0  0  0  0
  -16.9415    1.4092   24.1359 C   0  0  0  0  0  0  0  0  0  0  0  0
  -16.1624    1.6467   25.4818 C   0  0  0  0  0  0  0  0  0  0  0  0
  8 11  1  0
 19 21  1  0
 21 22  1  0
 21 23  1  0
 21 24  1  0
 16 17  2  0
 18 19  2  0
 19 20  1  0
 20 15  2  0
  2  3  2  0
  3  6  1  0
  6  5  2  0
  5  4  1  0
  4  1  2  0
 17 18  1  0
 18 28  1  0
 28 27  2  0
 27 26  1  0
 26 25  2  0
 25 17  1  0
  1  2  1  0
  2  7  1  0
  7  8  2  0
  8  9  1  0
  9 10  2  0
 10  1  1  0
 11 12  2  0
 12 13  1  0
 13 14  2  0
 14 16  1  0
 16 15  1  0
 15 11  1  0
M  END
$$$$
