No_9235-complexes_sdf/6BKW-FPZ/2024-09-17-14-21-01/
     RDKit          3D

 27 28  0  0  0  0  0  0  0  0999 V2000
   -7.7129    4.2099   27.0854 C   0  0  0  0  0  0  0  0  0  0  0  0
   -8.9133    4.4736   27.0998 C   0  0  0  0  0  0  0  0  0  0  0  0
   -9.4643    5.5426   27.7628 C   0  0  0  0  0  0  0  0  0  0  0  0
   -7.2009    2.9448   26.6134 C   0  0  0  0  0  0  0  0  0  0  0  0
   -8.1365    1.9533   26.2981 C   0  0  0  0  0  0  0  0  0  0  0  0
   -7.6295    0.6861   25.9574 C   0  0  0  0  0  0  0  0  0  0  0  0
   -9.8338    3.6042   26.3509 C   0  0  0  0  0  0  0  0  0  0  0  0
   -9.3834    2.3678   26.0141 C   0  0  0  0  0  0  0  0  0  0  0  0
   -8.1684   -0.2563   26.5721 N   0  0  0  0  0  0  0  0  0  0  0  0
   -9.0769   -0.2564   27.3871 C   0  0  0  0  0  0  0  0  0  0  0  0
   -9.5717   -1.4753   28.1231 C   0  0  0  0  0  0  0  0  0  0  0  0
   -7.7476   -1.6770   26.3726 C   0  0  0  0  0  0  0  0  0  0  0  0
   -8.2038   -2.7701   26.9062 C   0  0  0  0  0  0  0  0  0  0  0  0
   -9.1618   -2.6145   27.9007 C   0  0  0  0  0  0  0  0  0  0  0  0
   -6.7695    5.0053   27.9889 C   0  0  0  0  0  0  0  0  0  0  0  0
   -9.7599   -3.7873   28.6003 C   0  0  0  0  0  0  0  0  0  0  0  0
   -9.3464   -4.8323   28.3551 F   0  0  0  0  0  0  0  0  0  0  0  0
  -11.1302   -3.6957   28.3600 F   0  0  0  0  0  0  0  0  0  0  0  0
   -9.6246   -3.5601   29.9817 F   0  0  0  0  0  0  0  0  0  0  0  0
   -9.3274    6.7483   27.1593 C   0  0  0  0  0  0  0  0  0  0  0  0
  -11.2123    3.9511   26.0700 C   0  0  0  0  0  0  0  0  0  0  0  0
  -11.4222    4.2837   24.8593 F   0  0  0  0  0  0  0  0  0  0  0  0
  -11.5370    5.0192   26.8138 F   0  0  0  0  0  0  0  0  0  0  0  0
  -12.1716    2.8285   26.3284 C   0  0  0  0  0  0  0  0  0  0  0  0
  -13.3708    3.2116   26.3659 F   0  0  0  0  0  0  0  0  0  0  0  0
  -11.9457    2.3335   27.5952 F   0  0  0  0  0  0  0  0  0  0  0  0
  -12.0357    1.8653   25.5017 F   0  0  0  0  0  0  0  0  0  0  0  0
  5  6  1  0
  6  9  1  0
  9 10  1  0
  9 12  1  0
 11 14  1  0
 13 14  1  0
  1 15  1  0
 14 16  1  0
 16 17  1  0
 16 18  1  0
 16 19  1  0
  3 20  1  0
  7 21  1  0
 21 22  1  0
 21 23  1  0
 21 24  1  0
 24 25  1  0
 24 26  1  0
 24 27  1  0
  3  2  1  0
 10 11  1  0
 13 12  1  0
  1  2  2  0
  2  7  1  0
  7  8  2  0
  8  5  1  0
  5  4  2  0
  4  1  1  0
M  END
$$$$
