No_9735-complexes_sdf/6BKW-FPZ/2024-09-17-14-21-01/
     RDKit          3D

 19 20  0  0  0  0  0  0  0  0999 V2000
   -7.9040    3.9820   27.1177 C   0  0  0  0  0  0  0  0  0  0  0  0
   -8.2057    2.8231   26.8733 C   0  0  0  0  0  0  0  0  0  0  0  0
   -8.7695    5.0740   26.7916 C   0  0  0  0  0  0  0  0  0  0  0  0
   -9.9618    4.7598   26.1630 C   0  0  0  0  0  0  0  0  0  0  0  0
   -7.3763    1.7038   27.3414 C   0  0  0  0  0  0  0  0  0  0  0  0
   -9.4134    2.4504   26.3004 C   0  0  0  0  0  0  0  0  0  0  0  0
  -10.2558    3.4522   25.9218 C   0  0  0  0  0  0  0  0  0  0  0  0
   -6.0862    1.9481   27.8917 C   0  0  0  0  0  0  0  0  0  0  0  0
   -5.1792    0.7865   28.1225 C   0  0  0  0  0  0  0  0  0  0  0  0
   -5.6511   -0.4642   28.0105 C   0  0  0  0  0  0  0  0  0  0  0  0
   -7.6257    0.3219   27.1835 C   0  0  0  0  0  0  0  0  0  0  0  0
   -6.9001   -0.6664   27.5657 C   0  0  0  0  0  0  0  0  0  0  0  0
   -8.3991    6.5016   27.0451 C   0  0  0  0  0  0  0  0  0  0  0  0
   -7.9626    7.6115   26.9689 N   0  0  0  0  0  0  0  0  0  0  0  0
   -3.8222    1.1786   28.6501 C   0  0  0  0  0  0  0  0  0  0  0  0
   -3.4002    2.1491   28.3468 F   0  0  0  0  0  0  0  0  0  0  0  0
   -3.7038    1.0728   30.0306 F   0  0  0  0  0  0  0  0  0  0  0  0
   -2.9632    0.2275   28.1029 F   0  0  0  0  0  0  0  0  0  0  0  0
  -11.6929    3.1019   25.0616 Cl  0  0  0  0  0  0  0  0  0  0  0  0
  2  5  1  0
  3 13  1  0
 13 14  3  0
  9 15  1  0
 15 16  1  0
 15 17  1  0
 15 18  1  0
  7 19  1  0
  1  2  2  0
  2  6  1  0
  6  7  2  0
  7  4  1  0
  4  3  2  0
  3  1  1  0
  5  8  2  0
  8  9  1  0
  9 10  2  0
 10 12  1  0
 12 11  2  0
 11  5  1  0
M  END
$$$$
