No_9723-complexes_sdf/6BKW-FPZ/2024-09-17-14-21-01/
     RDKit          3D

 34 37  0  0  0  0  0  0  0  0999 V2000
   -7.9040    3.9820   27.1177 C   0  0  0  0  0  0  0  0  0  0  0  0
   -9.0711    4.3164   27.0630 C   0  0  0  0  0  0  0  0  0  0  0  0
  -10.0395    3.8218   27.1938 C   0  0  0  0  0  0  0  0  0  0  0  0
   -7.6424    2.5858   27.3610 C   0  0  0  0  0  0  0  0  0  0  0  0
   -8.7741    1.7889   27.4566 C   0  0  0  0  0  0  0  0  0  0  0  0
  -10.0155    2.3581   27.4300 C   0  0  0  0  0  0  0  0  0  0  0  0
  -11.2141    1.4842   27.6314 C   0  0  0  0  0  0  0  0  0  0  0  0
  -10.9551    0.2368   27.8113 C   0  0  0  0  0  0  0  0  0  0  0  0
   -9.6613   -0.3457   27.7754 C   0  0  0  0  0  0  0  0  0  0  0  0
   -8.5663    0.4027   27.6603 C   0  0  0  0  0  0  0  0  0  0  0  0
   -9.1119    5.9854   26.8285 C   0  0  0  0  0  0  0  0  0  0  0  0
   -9.0963    6.7611   27.8089 N   0  0  0  0  0  0  0  0  0  0  0  0
   -8.6683    6.3941   25.6331 N   0  0  0  0  0  0  0  0  0  0  0  0
   -6.2699    2.0454   27.3869 C   0  0  0  0  0  0  0  0  0  0  0  0
   -5.2294    2.6785   27.9805 N   0  0  0  0  0  0  0  0  0  0  0  0
   -5.8403    1.2014   26.5466 F   0  0  0  0  0  0  0  0  0  0  0  0
  -12.5137    2.0960   27.6730 C   0  0  0  0  0  0  0  0  0  0  0  0
  -13.3620    1.5786   28.3954 C   0  0  0  0  0  0  0  0  0  0  0  0
  -13.2407    0.1110   28.6691 C   0  0  0  0  0  0  0  0  0  0  0  0
  -12.0617   -0.5393   28.4307 C   0  0  0  0  0  0  0  0  0  0  0  0
  -14.3134   -0.6374   29.2159 N   0  0  0  0  0  0  0  0  0  0  0  0
  -14.4116   -1.7119   29.5062 C   0  0  0  0  0  0  0  0  0  0  0  0
  -14.9517   -2.0961   30.5968 C   0  0  0  0  0  0  0  0  0  0  0  0
  -15.7737   -1.0860   31.1092 C   0  0  1  0  0  0  0  0  0  0  0  0
  -15.4014    0.0983   29.9613 C   0  0  0  0  0  0  0  0  0  0  0  0
  -16.7064   -0.8050   32.0739 C   0  0  0  0  0  0  0  0  0  0  0  0
  -17.7073   -1.2161   32.0999 O   0  0  0  0  0  0  0  0  0  0  0  0
  -16.1181    0.0560   33.0733 N   0  0  0  0  0  0  0  0  0  0  0  0
  -14.8802    0.6768   33.2403 C   0  0  0  0  0  0  0  0  0  0  0  0
  -14.6821    1.4819   34.2191 C   0  0  0  0  0  0  0  0  0  0  0  0
  -13.4126    2.2164   34.3185 C   0  0  0  0  0  0  0  0  0  0  0  0
  -12.8816    2.7258   35.4689 C   0  0  0  0  0  0  0  0  0  0  0  0
  -13.3922    2.4566   36.6366 C   0  0  0  0  0  0  0  0  0  0  0  0
  -14.5956    1.7281   36.6435 C   0  0  0  0  0  0  0  0  0  0  0  0
  2 11  1  0
 11 12  1  0
 11 13  2  0
  4 14  1  0
 14 15  2  0
 14 16  1  0
 19 21  1  0
 21 22  1  0
 22 23  2  0
 23 24  1  0
 21 25  1  0
 24 25  1  0
 24 26  1  6
 26 27  2  0
 26 28  1  0
 28 29  1  0
 29 30  2  3
 30 31  1  0
 31 32  1  0
 32 33  2  3
 33 34  1  0
  1  2  2  0
  2  3  1  0
  3  6  2  0
  5  4  2  0
  4  1  1  0
  5  6  1  0
  6  7  1  0
  8  9  1  0
  9 10  2  0
 10  5  1  0
  7  8  2  0
  8 20  1  0
 20 19  2  0
 19 18  1  0
 18 17  2  0
 17  7  1  0
M  END
$$$$
