No_9986-complexes_sdf/6BKW-FPZ/2024-09-17-14-21-01/
     RDKit          3D

 20 21  0  0  0  0  0  0  0  0999 V2000
   -7.9040    3.9820   27.1177 C   0  0  0  0  0  0  0  0  0  0  0  0
   -8.2057    2.8231   26.8733 C   0  0  0  0  0  0  0  0  0  0  0  0
   -7.4766    1.7477   27.4593 C   0  0  0  0  0  0  0  0  0  0  0  0
   -8.7468    5.1251   26.6967 C   0  0  0  0  0  0  0  0  0  0  0  0
   -9.7234    4.8589   25.8202 C   0  0  0  0  0  0  0  0  0  0  0  0
   -9.9711    3.5858   25.4266 C   0  0  0  0  0  0  0  0  0  0  0  0
   -9.2266    2.4957   25.9600 C   0  0  0  0  0  0  0  0  0  0  0  0
   -6.6635    0.9000   26.7532 C   0  0  0  0  0  0  0  0  0  0  0  0
   -5.9212   -0.0752   27.4947 C   0  0  0  0  0  0  0  0  0  0  0  0
   -6.1678   -1.2221   27.5688 C   0  0  0  0  0  0  0  0  0  0  0  0
   -5.3068   -2.1953   28.3480 C   0  0  0  0  0  0  0  0  0  0  0  0
   -4.1942   -1.7001   28.9998 C   0  0  0  0  0  0  0  0  0  0  0  0
   -3.9062   -0.3007   28.9035 C   0  0  0  0  0  0  0  0  0  0  0  0
   -4.7210    0.5290   28.1936 C   0  0  0  0  0  0  0  0  0  0  0  0
   -8.4373    6.5289   27.0797 C   0  0  0  0  0  0  0  0  0  0  0  0
   -7.9429    7.6075   26.9655 N   0  0  0  0  0  0  0  0  0  0  0  0
  -11.0082    3.3167   24.4195 C   0  0  1  0  0  0  0  0  0  0  0  0
  -12.2796    3.0032   24.7913 C   0  0  0  0  0  0  0  0  0  0  0  0
  -10.7051    3.4537   23.0352 C   0  0  0  0  0  0  0  0  0  0  0  0
  -10.2331    4.2524   22.4314 C   0  0  0  0  0  0  0  0  0  0  0  0
  2  3  1  0
  3  8  2  3
  8  9  1  0
  4 15  1  0
 15 16  3  0
  6 17  1  0
 17 18  1  1
 17 19  1  0
 19 20  2  0
  1  2  2  0
  2  7  1  0
  7  6  2  0
  6  5  1  0
  5  4  2  0
  4  1  1  0
  9 10  2  0
 10 11  1  0
 11 12  2  0
 12 13  1  0
 13 14  2  0
 14  9  1  0
M  END
$$$$
