No_9583-complexes_sdf/6BKW-FPZ/2024-09-17-14-21-01/
     RDKit          3D

 37 41  0  0  0  0  0  0  0  0999 V2000
   -7.7129    4.2099   27.0854 C   0  0  0  0  0  0  0  0  0  0  0  0
   -8.9133    4.4736   27.0998 C   0  0  0  0  0  0  0  0  0  0  0  0
   -9.8363    3.8127   27.2418 C   0  0  0  0  0  0  0  0  0  0  0  0
   -7.2995    2.8520   27.3808 C   0  0  0  0  0  0  0  0  0  0  0  0
   -8.3226    1.9328   27.4680 C   0  0  0  0  0  0  0  0  0  0  0  0
   -9.5955    2.3639   27.4416 C   0  0  0  0  0  0  0  0  0  0  0  0
   -9.1536    5.9390   26.9373 N   0  0  0  0  0  0  0  0  0  0  0  0
   -8.5567    6.7846   26.0748 C   0  0  0  0  0  0  0  0  0  0  0  0
   -7.9987    0.5148   27.6891 C   0  0  0  0  0  0  0  0  0  0  0  0
   -8.9921   -0.4802   27.6606 C   0  0  0  0  0  0  0  0  0  0  0  0
   -6.6271    0.1290   27.8328 C   0  0  0  0  0  0  0  0  0  0  0  0
   -6.2926   -1.2066   28.0957 C   0  0  0  0  0  0  0  0  0  0  0  0
   -8.6377   -1.8136   27.9553 C   0  0  0  0  0  0  0  0  0  0  0  0
   -7.2963   -2.1319   28.1343 C   0  0  0  0  0  0  0  0  0  0  0  0
  -10.0418    6.5343   27.9118 C   0  0  0  0  0  0  0  0  0  0  0  0
   -4.8812   -1.5279   28.3022 C   0  0  1  0  0  0  0  0  0  0  0  0
   -4.3450   -1.4040   29.2820 C   0  0  0  0  0  0  0  0  0  0  0  0
   -4.9704   -0.7295   30.5352 C   0  0  0  0  0  0  0  0  0  0  0  0
   -4.1745   -0.4202   31.6867 C   0  0  0  0  0  0  0  0  0  0  0  0
   -2.7891   -0.6518   31.6519 C   0  0  0  0  0  0  0  0  0  0  0  0
   -2.1659   -1.1649   30.5558 C   0  0  0  0  0  0  0  0  0  0  0  0
   -2.8947   -1.4551   29.4568 C   0  0  0  0  0  0  0  0  0  0  0  0
   -4.3279   -2.1114   27.0952 C   0  0  0  0  0  0  0  0  0  0  0  0
   -2.0576   -0.2979   32.9357 C   0  0  0  0  0  0  0  0  0  0  0  0
   -0.9994   -0.6461   33.0676 O   0  0  0  0  0  0  0  0  0  0  0  0
   -2.7918    0.3756   33.8127 O   0  0  0  0  0  0  0  0  0  0  0  0
   -3.6731   -3.2864   26.9710 C   0  0  0  0  0  0  0  0  0  0  0  0
   -4.3382   -1.2719   25.8616 C   0  0  0  0  0  0  0  0  0  0  0  0
   -3.2085   -3.7750   25.8157 C   0  0  0  0  0  0  0  0  0  0  0  0
   -4.0430   -1.8330   24.6288 C   0  0  0  0  0  0  0  0  0  0  0  0
   -3.3557   -3.0160   24.6508 C   0  0  0  0  0  0  0  0  0  0  0  0
   -6.9666   -3.5390   28.4082 C   0  0  0  0  0  0  0  0  0  0  0  0
   -7.0070   -4.4462   27.4533 C   0  0  0  0  0  0  0  0  0  0  0  0
   -6.5794   -5.7417   27.6265 C   0  0  0  0  0  0  0  0  0  0  0  0
   -6.7559   -3.9667   29.7504 C   0  0  0  0  0  0  0  0  0  0  0  0
   -6.4044   -5.2782   30.0515 C   0  0  0  0  0  0  0  0  0  0  0  0
   -6.3155   -6.1647   28.9440 C   0  0  0  0  0  0  0  0  0  0  0  0
  2  7  1  0
  7  8  1  0
  5  9  1  0
  7 15  1  0
 16 12  1  1
 16 23  1  0
 20 24  1  0
 24 25  1  0
 24 26  2  0
 14 32  1  0
 16 17  1  0
  1  2  2  0
  2  3  1  0
  3  6  2  0
  6  5  1  0
  5  4  2  0
  4  1  1  0
 17 18  2  0
 18 19  1  0
 19 20  2  0
 20 21  1  0
 21 22  2  0
 22 17  1  0
 23 27  2  0
 27 29  1  0
 29 31  2  0
 31 30  1  0
 30 28  2  0
 28 23  1  0
  9 10  2  0
 10 13  1  0
 13 14  2  0
 14 12  1  0
 12 11  2  0
 11  9  1  0
 32 33  2  0
 33 34  1  0
 34 37  2  0
 37 36  1  0
 36 35  2  0
 35 32  1  0
M  END
$$$$
