No_9694-complexes_sdf/6BKW-FPZ/2024-09-17-14-21-01/
     RDKit          3D

 18 19  0  0  0  0  0  0  0  0999 V2000
   -7.9040    3.9820   27.1177 C   0  0  0  0  0  0  0  0  0  0  0  0
   -7.8663    4.8694   27.9238 C   0  0  0  0  0  0  0  0  0  0  0  0
   -9.0491    3.8523   26.2542 C   0  0  0  0  0  0  0  0  0  0  0  0
   -8.7661    5.9491   27.9690 C   0  0  0  0  0  0  0  0  0  0  0  0
   -9.9295    4.8502   26.2323 C   0  0  0  0  0  0  0  0  0  0  0  0
   -9.8077    5.9288   27.0933 C   0  0  0  0  0  0  0  0  0  0  0  0
   -9.0905    2.4042   25.0376 Br  0  0  0  0  0  0  0  0  0  0  0  0
   -6.7736    2.6469   27.1883 Cl  0  0  0  0  0  0  0  0  0  0  0  0
  -10.9101    4.8337   25.3192 O   0  0  0  0  0  0  0  0  0  0  0  0
  -12.0244    4.2782   25.5268 C   0  0  1  0  0  0  0  0  0  0  0  0
  -12.4499    3.9383   26.7174 C   0  0  0  0  0  0  0  0  0  0  0  0
  -11.7013    4.0784   27.9054 C   0  0  0  0  0  0  0  0  0  0  0  0
  -12.3210    3.3419   29.0673 C   0  0  0  0  0  0  0  0  0  0  0  0
  -13.5102    2.7739   29.0637 C   0  0  0  0  0  0  0  0  0  0  0  0
  -14.2063    2.6672   27.8780 C   0  0  0  0  0  0  0  0  0  0  0  0
  -13.6898    3.2078   26.7420 C   0  0  0  0  0  0  0  0  0  0  0  0
  -12.7274    4.2317   24.4700 F   0  0  0  0  0  0  0  0  0  0  0  0
  -14.0042    2.1975   30.1725 F   0  0  0  0  0  0  0  0  0  0  0  0
  3  7  1  0
  1  8  1  0
  5  9  1  0
  9 10  1  0
 10 17  1  1
 14 18  1  0
 10 11  1  0
 11 12  2  0
 12 13  1  0
 13 14  2  0
 14 15  1  0
 15 16  2  0
 16 11  1  0
  1  2  2  0
  2  4  1  0
  4  6  2  0
  6  5  1  0
  5  3  2  0
  3  1  1  0
M  END
$$$$
