No_9850-complexes_sdf/6BKW-FPZ/2024-09-17-14-21-01/
     RDKit          3D

 21 22  0  0  0  0  0  0  0  0999 V2000
   -7.9040    3.9820   27.1177 C   0  0  0  0  0  0  0  0  0  0  0  0
   -8.2057    2.8231   26.8733 C   0  0  0  0  0  0  0  0  0  0  0  0
   -7.4766    1.7477   27.4593 C   0  0  0  0  0  0  0  0  0  0  0  0
   -8.7468    5.1251   26.6967 C   0  0  0  0  0  0  0  0  0  0  0  0
   -9.7234    4.8589   25.8202 C   0  0  0  0  0  0  0  0  0  0  0  0
   -9.9711    3.5858   25.4266 C   0  0  0  0  0  0  0  0  0  0  0  0
   -9.2266    2.4957   25.9600 C   0  0  0  0  0  0  0  0  0  0  0  0
   -6.6425    0.9223   26.7531 C   0  0  0  0  0  0  0  0  0  0  0  0
   -5.9067   -0.0723   27.5013 C   0  0  0  0  0  0  0  0  0  0  0  0
   -5.4307    0.1358   28.6042 C   0  0  0  0  0  0  0  0  0  0  0  0
   -5.7609    1.3646   29.3201 C   0  0  0  0  0  0  0  0  0  0  0  0
   -6.6816    2.2118   28.6799 C   0  0  0  0  0  0  0  0  0  0  0  0
   -4.3487   -0.6620   29.2817 C   0  0  0  0  0  0  0  0  0  0  0  0
   -8.2695    6.4808   27.1762 C   0  0  0  0  0  0  0  0  0  0  0  0
   -9.1720    7.4941   27.1612 N   0  0  0  0  0  0  0  0  0  0  0  0
   -7.0996    6.6173   27.6195 O   0  0  0  0  0  0  0  0  0  0  0  0
   -4.4536   -1.6602   29.2151 O   0  0  0  0  0  0  0  0  0  0  0  0
   -3.3091    0.0397   29.7439 O   0  0  0  0  0  0  0  0  0  0  0  0
  -11.0298    3.3630   24.4347 C   0  0  0  0  0  0  0  0  0  0  0  0
  -12.3235    3.0450   24.7857 C   0  0  0  0  0  0  0  0  0  0  0  0
  -13.3034    2.8516   23.8097 C   0  0  0  0  0  0  0  0  0  0  0  0
  2  3  1  0
 10 13  1  0
  4 14  1  0
 14 15  1  0
 14 16  2  0
 13 17  2  0
 13 18  1  0
  6 19  1  0
 19 20  2  3
 20 21  1  0
  3  8  2  0
  8  9  1  0
  9 10  2  0
 10 11  1  0
 11 12  2  0
 12  3  1  0
  1  2  2  0
  2  7  1  0
  7  6  2  0
  6  5  1  0
  5  4  2  0
  4  1  1  0
M  END
$$$$
