No_9138-complexes_sdf/6BKW-FPZ/2024-09-17-14-21-01/
     RDKit          3D

 14 14  0  0  0  0  0  0  0  0999 V2000
   -7.9040    3.9820   27.1177 C   0  0  0  0  0  0  0  0  0  0  0  0
   -7.8663    4.8694   27.9238 C   0  0  0  0  0  0  0  0  0  0  0  0
   -9.0501    3.8017   26.2617 C   0  0  0  0  0  0  0  0  0  0  0  0
  -10.0189    4.7608   26.3707 C   0  0  0  0  0  0  0  0  0  0  0  0
   -8.6973    5.9722   27.8968 C   0  0  0  0  0  0  0  0  0  0  0  0
   -9.8216    5.8946   27.1241 C   0  0  0  0  0  0  0  0  0  0  0  0
   -9.1437    2.6293   25.4175 C   0  0  0  0  0  0  0  0  0  0  0  0
   -9.8155    2.7261   24.3455 O   0  0  0  0  0  0  0  0  0  0  0  0
   -8.4990    1.5655   25.7095 O   0  0  0  0  0  0  0  0  0  0  0  0
   -8.6180    0.4149   24.9618 C   0  0  0  0  0  0  0  0  0  0  0  0
   -9.2298   -0.5985   25.5111 C   0  0  0  0  0  0  0  0  0  0  0  0
   -9.3337   -0.5585   26.9307 C   0  0  0  0  0  0  0  0  0  0  0  0
  -10.1367   -1.3707   27.5608 C   0  0  0  0  0  0  0  0  0  0  0  0
  -10.2978   -1.2672   29.0710 C   0  0  0  0  0  0  0  0  0  0  0  0
  3  7  1  0
  7  8  2  0
  7  9  1  0
  9 10  1  0
 10 11  1  0
 11 12  1  0
 12 13  2  3
 13 14  1  0
  1  2  2  0
  2  5  1  0
  5  6  2  0
  6  4  1  0
  4  3  2  0
  3  1  1  0
M  END
$$$$
