No_9477-complexes_sdf/6BKW-FPZ/2024-09-17-14-21-01/
     RDKit          3D

 40 44  0  0  0  0  0  0  0  0999 V2000
   -7.2496    3.8871   27.4508 C   0  0  0  0  0  0  0  0  0  0  0  0
   -8.5096    4.0291   27.2770 C   0  0  0  0  0  0  0  0  0  0  0  0
   -9.2669    5.1645   27.5845 C   0  0  0  0  0  0  0  0  0  0  0  0
   -8.4566    6.3212   27.8001 C   0  0  0  0  0  0  0  0  0  0  0  0
   -6.6044    2.5801   27.2072 C   0  0  0  0  0  0  0  0  0  0  0  0
   -5.3630    2.2595   27.8771 C   0  0  0  0  0  0  0  0  0  0  0  0
   -7.0963    6.2342   27.8575 C   0  0  0  0  0  0  0  0  0  0  0  0
   -6.4419    5.0206   27.7323 C   0  0  0  0  0  0  0  0  0  0  0  0
   -4.8710    0.9610   27.8319 C   0  0  0  0  0  0  0  0  0  0  0  0
   -5.6604   -0.0451   27.2720 C   0  0  0  0  0  0  0  0  0  0  0  0
   -7.3439    1.4533   26.8624 C   0  0  0  0  0  0  0  0  0  0  0  0
   -6.9397    0.2210   26.8577 C   0  0  0  0  0  0  0  0  0  0  0  0
  -10.6819    5.2586   27.4468 C   0  0  0  0  0  0  0  0  0  0  0  0
  -11.3945    4.6949   27.9669 C   0  0  0  0  0  0  0  0  0  0  0  0
  -12.9171    4.6487   27.8556 C   0  0  0  0  0  0  0  0  0  0  0  0
  -13.7337    4.8689   28.8216 C   0  0  0  0  0  0  0  0  0  0  0  0
  -15.0886    5.1996   28.6972 C   0  0  0  0  0  0  0  0  0  0  0  0
  -15.5656    5.3735   27.3723 C   0  0  0  0  0  0  0  0  0  0  0  0
  -14.7429    5.2327   26.3021 C   0  0  0  0  0  0  0  0  0  0  0  0
  -13.3760    4.9872   26.5082 C   0  0  0  0  0  0  0  0  0  0  0  0
  -11.1286    3.4726   28.8947 C   0  0  0  0  0  0  0  0  0  0  0  0
   -3.3010    0.6781   28.4273 Cl  0  0  0  0  0  0  0  0  0  0  0  0
  -15.1506    5.3857   24.9263 C   0  0  0  0  0  0  0  0  0  0  0  0
  -16.0377    6.1966   24.5074 C   0  0  0  0  0  0  0  0  0  0  0  0
  -16.4131    6.4754   23.4142 C   0  0  0  0  0  0  0  0  0  0  0  0
  -15.7104    5.8796   22.2508 C   0  0  0  0  0  0  0  0  0  0  0  0
  -14.3372    4.8204   23.8857 C   0  0  0  0  0  0  0  0  0  0  0  0
  -14.6480    5.0807   22.5933 C   0  0  0  0  0  0  0  0  0  0  0  0
  -15.9490    5.4022   29.8534 C   0  0  0  0  0  0  0  0  0  0  0  0
  -16.5147    6.3123   30.0234 O   0  0  0  0  0  0  0  0  0  0  0  0
  -15.6224    4.5994   30.8678 O   0  0  0  0  0  0  0  0  0  0  0  0
  -16.3402    4.6738   31.9939 C   0  0  0  0  0  0  0  0  0  0  0  0
  -15.5927    4.7121   33.1583 C   0  0  0  0  0  0  0  0  0  0  0  0
  -14.2988    4.2039   33.1106 C   0  0  0  0  0  0  0  0  0  0  0  0
  -13.3257    4.7239   33.9946 C   0  0  0  0  0  0  0  0  0  0  0  0
  -11.9826    4.1478   34.0400 C   0  0  0  0  0  0  0  0  0  0  0  0
  -11.1110    4.6785   35.0347 C   0  0  0  0  0  0  0  0  0  0  0  0
  -11.5136    5.4996   36.1002 C   0  0  0  0  0  0  0  0  0  0  0  0
  -12.9159    5.9016   36.0476 C   0  0  0  0  0  0  0  0  0  0  0  0
  -13.7476    5.5441   35.0735 C   0  0  0  0  0  0  0  0  0  0  0  0
  1  5  1  0
  3 13  1  0
 13 14  2  3
 14 15  1  0
 14 21  1  0
  9 22  1  0
 19 23  1  0
 17 29  1  0
 29 30  2  0
 29 31  1  0
 31 32  1  0
 32 33  1  0
 33 34  1  0
 34 35  1  0
 15 16  2  0
 16 17  1  0
 17 18  2  0
 18 19  1  0
 19 20  2  0
 20 15  1  0
  5  6  2  0
  6  9  1  0
  9 10  2  0
 10 12  1  0
 12 11  2  0
 11  5  1  0
 35 36  2  0
 36 37  1  0
 37 38  2  0
 38 39  1  0
 39 40  2  0
 40 35  1  0
 23 24  2  0
 24 25  1  0
 25 26  2  0
 26 28  1  0
 28 27  2  0
 27 23  1  0
  1  2  2  0
  2  3  1  0
  3  4  2  0
  4  7  1  0
  7  8  2  0
  8  1  1  0
M  END
$$$$
