No_9044-complexes_sdf/6BKW-FPZ/2024-09-17-14-21-01/
     RDKit          3D

 20 20  0  0  0  0  0  0  0  0999 V2000
   -7.9040    3.9820   27.1177 C   0  0  2  0  0  0  0  0  0  0  0  0
   -9.0711    4.3164   27.0630 C   0  0  0  0  0  0  0  0  0  0  0  0
   -9.5294    5.4517   27.7215 C   0  0  0  0  0  0  0  0  0  0  0  0
   -7.4336    2.7132   26.5681 C   0  0  0  0  0  0  0  0  0  0  0  0
   -8.3353    1.8569   26.0442 C   0  0  0  0  0  0  0  0  0  0  0  0
   -9.6477    2.2853   25.9146 C   0  0  0  0  0  0  0  0  0  0  0  0
  -10.0346    3.4497   26.4483 C   0  0  0  0  0  0  0  0  0  0  0  0
   -7.8750    0.5509   25.5918 C   0  0  0  0  0  0  0  0  0  0  0  0
   -8.0040    0.2730   24.4392 O   0  0  0  0  0  0  0  0  0  0  0  0
   -7.1075   -0.0974   26.3993 O   0  0  0  0  0  0  0  0  0  0  0  0
   -6.8823    4.6124   27.8152 F   0  0  0  0  0  0  0  0  0  0  0  0
   -6.5134   -1.2447   26.2004 C   0  0  0  0  0  0  0  0  0  0  0  0
   -5.9783   -1.9257   27.3328 C   0  0  0  0  0  0  0  0  0  0  0  0
   -5.9644   -1.2205   28.5009 C   0  0  0  0  0  0  0  0  0  0  0  0
   -5.6578   -1.8121   29.7537 C   0  0  0  0  0  0  0  0  0  0  0  0
   -6.4108   -2.5678   30.3083 C   0  0  0  0  0  0  0  0  0  0  0  0
   -6.6472   -2.7463   31.3651 C   0  0  0  0  0  0  0  0  0  0  0  0
   -7.6774   -3.5507   32.0946 C   0  0  0  0  0  0  0  0  0  0  0  0
   -8.5404   -4.1672   31.1972 C   0  0  0  0  0  0  0  0  0  0  0  0
   -8.4267   -3.9768   29.8793 C   0  0  0  0  0  0  0  0  0  0  0  0
  1  2  1  0
  2  3  2  0
  1  4  1  0
  4  5  1  0
  5  6  1  0
  2  7  1  0
  6  7  1  0
  5  8  1  0
  8  9  2  0
  8 10  1  0
  1 11  1  1
 10 12  1  0
 12 13  1  0
 13 14  1  0
 14 15  2  3
 15 16  1  0
 16 17  2  3
 17 18  1  0
 18 19  2  3
 19 20  1  0
M  END
$$$$
