No_9443-complexes_sdf/6BKW-FPZ/2024-09-17-14-21-01/
     RDKit          3D

 23 25  0  0  0  0  0  0  0  0999 V2000
   -7.7129    4.2099   27.0854 C   0  0  0  0  0  0  0  0  0  0  0  0
   -7.7814    5.1722   27.8972 C   0  0  0  0  0  0  0  0  0  0  0  0
   -8.8776    3.8408   26.3416 C   0  0  0  0  0  0  0  0  0  0  0  0
   -8.9136    2.6330   25.5655 C   0  0  0  0  0  0  0  0  0  0  0  0
   -8.8361    6.1389   27.9032 C   0  0  0  0  0  0  0  0  0  0  0  0
   -9.9718    4.7048   26.3433 C   0  0  0  0  0  0  0  0  0  0  0  0
   -9.9205    5.8499   27.1013 C   0  0  0  0  0  0  0  0  0  0  0  0
   -8.3007    1.4813   26.1918 C   0  0  0  0  0  0  0  0  0  0  0  0
   -7.8949    1.5455   27.5902 C   0  0  0  0  0  0  0  0  0  0  0  0
   -8.2409    0.2738   25.4073 C   0  0  0  0  0  0  0  0  0  0  0  0
   -9.3491   -0.4802   25.3215 C   0  0  0  0  0  0  0  0  0  0  0  0
   -9.4307   -1.3647   24.5725 C   0  0  0  0  0  0  0  0  0  0  0  0
  -10.6987   -2.1201   24.2911 C   0  0  0  0  0  0  0  0  0  0  0  0
  -11.6031   -1.7056   24.7109 C   0  0  0  0  0  0  0  0  0  0  0  0
  -11.7817   -0.6248   25.6251 C   0  0  0  0  0  0  0  0  0  0  0  0
  -10.5573    0.0505   25.9011 C   0  0  0  0  0  0  0  0  0  0  0  0
   -7.0490   -0.2351   25.4028 O   0  0  0  0  0  0  0  0  0  0  0  0
  -11.0823    4.4295   25.4971 C   0  0  0  0  0  0  0  0  0  0  0  0
  -12.2994    4.0823   25.9817 C   0  0  0  0  0  0  0  0  0  0  0  0
  -13.3722    3.7945   25.1770 C   0  0  0  0  0  0  0  0  0  0  0  0
  -13.1775    3.7997   23.7966 C   0  0  0  0  0  0  0  0  0  0  0  0
  -10.9946    4.4323   24.0760 C   0  0  0  0  0  0  0  0  0  0  0  0
  -11.9500    4.2163   23.2627 C   0  0  0  0  0  0  0  0  0  0  0  0
  3  4  1  0
  4  8  2  3
  8  9  1  0
  8 10  1  0
 10 11  1  0
 10 17  2  0
  6 18  1  0
 11 12  2  0
 12 13  1  0
 13 14  2  0
 14 15  1  0
 15 16  2  0
 16 11  1  0
 18 19  2  0
 19 20  1  0
 20 21  2  0
 21 23  1  0
 23 22  2  0
 22 18  1  0
  1  2  2  0
  2  5  1  0
  5  7  2  0
  7  6  1  0
  6  3  2  0
  3  1  1  0
M  END
$$$$
