No_9217-complexes_sdf/6BKW-FPZ/2024-09-17-14-21-01/
     RDKit          3D

 21 23  0  0  0  0  0  0  0  0999 V2000
   -7.7129    4.2099   27.0854 C   0  0  0  0  0  0  0  0  0  0  0  0
   -8.2112    3.0637   26.9225 C   0  0  0  0  0  0  0  0  0  0  0  0
   -9.4446    2.8304   26.1868 C   0  0  0  0  0  0  0  0  0  0  0  0
   -8.4697    5.3956   26.7238 C   0  0  0  0  0  0  0  0  0  0  0  0
   -9.6172    5.2111   25.9513 C   0  0  0  0  0  0  0  0  0  0  0  0
  -10.0424    3.9782   25.6873 C   0  0  0  0  0  0  0  0  0  0  0  0
   -7.9172    6.7181   27.0124 C   0  0  2  0  0  0  0  0  0  0  0  0
   -7.2016    6.7379   28.0490 F   0  0  0  0  0  0  0  0  0  0  0  0
   -8.3173    7.8940   26.4451 C   0  0  0  0  0  0  0  0  0  0  0  0
   -7.4953    1.7997   27.3771 C   0  0  0  0  0  0  0  0  0  0  0  0
   -6.1123    1.8547   27.7071 C   0  0  0  0  0  0  0  0  0  0  0  0
   -5.4191    0.7191   28.1899 C   0  0  0  0  0  0  0  0  0  0  0  0
   -6.0845   -0.5062   28.1621 C   0  0  0  0  0  0  0  0  0  0  0  0
   -7.8769    0.4456   27.3125 C   0  0  0  0  0  0  0  0  0  0  0  0
   -5.3545   -1.6450   28.6402 C   0  0  0  0  0  0  0  0  0  0  0  0
   -7.3058   -0.5863   27.8034 C   0  0  0  0  0  0  0  0  0  0  0  0
   -5.6306   -2.6225   28.8310 C   0  0  0  0  0  0  0  0  0  0  0  0
   -4.8413   -3.7977   29.3386 C   0  0  0  0  0  0  0  0  0  0  0  0
   -3.5080   -3.5175   29.5952 C   0  0  0  0  0  0  0  0  0  0  0  0
   -3.8340   -1.2779   28.9980 C   0  0  0  0  0  0  0  0  0  0  0  0
   -3.0825   -2.0213   29.3990 C   0  0  0  0  0  0  0  0  0  0  0  0
  4  7  1  0
  7  8  1  0
  7  9  1  1
  2 10  1  0
 13 15  1  0
 10 11  2  0
 11 12  1  0
 12 13  2  0
 13 16  1  0
 16 14  2  0
 14 10  1  0
 15 17  2  0
 17 18  1  0
 18 19  2  0
 19 21  1  0
 21 20  2  0
 20 15  1  0
  1  2  2  0
  2  3  1  0
  3  6  2  0
  6  5  1  0
  5  4  2  0
  4  1  1  0
M  END
$$$$
