No_9697-complexes_sdf/6BKW-FPZ/2024-09-17-14-21-01/
     RDKit          3D

 13 14  0  0  0  0  0  0  0  0999 V2000
   -7.7129    4.2099   27.0854 C   0  0  0  0  0  0  0  0  0  0  0  0
   -8.9133    4.4736   27.0998 C   0  0  0  0  0  0  0  0  0  0  0  0
   -9.7937    3.7367   26.2091 C   0  0  0  0  0  0  0  0  0  0  0  0
   -7.2495    2.8647   26.8496 C   0  0  0  0  0  0  0  0  0  0  0  0
   -8.1891    1.9790   26.3454 C   0  0  0  0  0  0  0  0  0  0  0  0
   -9.4252    2.4603   26.0121 C   0  0  0  0  0  0  0  0  0  0  0  0
   -9.3121    5.9663   27.2474 C   0  0  0  0  0  0  0  0  0  0  0  0
   -7.7466    0.5946   26.1401 C   0  0  0  0  0  0  0  0  0  0  0  0
   -6.8592    0.0834   26.7806 O   0  0  0  0  0  0  0  0  0  0  0  0
   -8.3699   -0.1077   25.2221 O   0  0  0  0  0  0  0  0  0  0  0  0
   -8.5774    7.0317   26.6231 C   0  0  0  0  0  0  0  0  0  0  0  0
   -7.2844    6.8083   26.2700 C   0  0  0  0  0  0  0  0  0  0  0  0
   -6.7339    5.5049   26.8674 C   0  0  0  0  0  0  0  0  0  0  0  0
  5  8  1  0
  8  9  2  0
  8 10  1  0
  2  3  2  0
  3  6  1  0
  6  5  2  0
  5  4  1  0
  4  1  2  0
  1  2  1  0
  2  7  1  0
  7 11  2  0
 11 12  1  0
 12 13  2  0
 13  1  1  0
M  END
$$$$
