No_9811-complexes_sdf/6BKW-FPZ/2024-09-17-14-21-01/
     RDKit          3D

 11 11  0  0  0  0  0  0  0  0999 V2000
   -7.9040    3.9820   27.1177 C   0  0  0  0  0  0  0  0  0  0  0  0
   -7.8663    4.8694   27.9238 C   0  0  0  0  0  0  0  0  0  0  0  0
   -9.0491    3.8523   26.2542 C   0  0  0  0  0  0  0  0  0  0  0  0
   -9.4067    2.6808   25.6532 C   0  0  0  0  0  0  0  0  0  0  0  0
   -8.4979    6.1198   27.7613 C   0  0  0  0  0  0  0  0  0  0  0  0
   -9.5895    6.1132   26.8921 C   0  0  0  0  0  0  0  0  0  0  0  0
   -9.7653    5.0042   26.1316 C   0  0  0  0  0  0  0  0  0  0  0  0
  -10.3360    2.0932   25.9519 C   0  0  0  0  0  0  0  0  0  0  0  0
  -10.6938    0.7770   25.3243 C   0  0  0  0  0  0  0  0  0  0  0  0
   -9.8198    0.3254   24.3361 C   0  0  0  0  0  0  0  0  0  0  0  0
   -8.7560    1.0709   23.9137 C   0  0  0  0  0  0  0  0  0  0  0  0
  4  8  1  0
  8  9  2  3
  9 10  1  0
 10 11  2  0
  4  3  1  0
  1  2  2  0
  2  5  1  0
  5  6  2  0
  6  7  1  0
  7  3  2  0
  3  1  1  0
M  END
$$$$
