No_9903-complexes_sdf/6BKW-FPZ/2024-09-17-14-21-01/
     RDKit          3D

 23 26  0  0  0  0  0  0  0  0999 V2000
   -7.7129    4.2099   27.0854 C   0  0  0  0  0  0  0  0  0  0  0  0
   -8.2112    3.0637   26.9225 C   0  0  0  0  0  0  0  0  0  0  0  0
   -9.4446    2.8304   26.1868 C   0  0  0  0  0  0  0  0  0  0  0  0
   -8.4697    5.3956   26.7238 C   0  0  0  0  0  0  0  0  0  0  0  0
   -9.6172    5.2111   25.9513 C   0  0  0  0  0  0  0  0  0  0  0  0
  -10.0424    3.9782   25.6873 C   0  0  0  0  0  0  0  0  0  0  0  0
   -7.5056    1.8167   27.4088 C   0  0  0  0  0  0  0  0  0  0  0  0
   -6.3130    1.9672   27.8595 O   0  0  0  0  0  0  0  0  0  0  0  0
   -8.0047    0.6185   27.3147 N   0  0  0  0  0  0  0  0  0  0  0  0
   -7.2232   -0.5656   27.6065 C   0  0  0  0  0  0  0  0  0  0  0  0
   -8.0157   -1.6130   28.1024 C   0  0  0  0  0  0  0  0  0  0  0  0
   -8.1793    6.7764   27.0491 C   0  0  0  0  0  0  0  0  0  0  0  0
   -7.9818    7.8608   26.9775 N   0  0  0  0  0  0  0  0  0  0  0  0
   -9.4058   -1.5076   28.0716 C   0  0  0  0  0  0  0  0  0  0  0  0
  -10.0866   -0.3208   27.7620 C   0  0  0  0  0  0  0  0  0  0  0  0
   -9.3655    0.6587   27.4596 C   0  0  2  0  0  0  0  0  0  0  0  0
  -10.0981    1.5883   26.3735 C   0  0  1  0  0  0  0  0  0  0  0  0
  -11.3632    1.3389   26.0041 C   0  0  0  0  0  0  0  0  0  0  0  0
  -11.7690    0.4269   25.5687 C   0  0  0  0  0  0  0  0  0  0  0  0
  -13.0909    0.2363   24.9952 C   0  0  0  0  0  0  0  0  0  0  0  0
  -13.8899    1.3256   25.0378 C   0  0  0  0  0  0  0  0  0  0  0  0
  -13.4718    2.5053   25.5534 C   0  0  0  0  0  0  0  0  0  0  0  0
  -12.1938    2.6167   26.0614 C   0  0  0  0  0  0  0  0  0  0  0  0
  2  7  1  0
  7  8  2  0
  7  9  1  0
  9 10  1  0
  4 12  1  0
 12 13  3  0
 11 14  1  0
  9 16  1  0
 16 15  1  6
  3 17  1  0
 16 17  1  0
 17 18  1  1
 10 11  1  0
 14 15  1  0
 18 19  2  0
 19 20  1  0
 20 21  2  0
 21 22  1  0
 22 23  2  0
 23 18  1  0
  1  2  2  0
  2  3  1  0
  3  6  2  0
  6  5  1  0
  5  4  2  0
  4  1  1  0
M  END
$$$$
