No_9264-complexes_sdf/6BKW-FPZ/2024-09-17-14-21-01/
     RDKit          3D

 34 38  0  0  0  0  0  0  0  0999 V2000
   -7.9040    3.9820   27.1177 C   0  0  0  0  0  0  0  0  0  0  0  0
   -8.2057    2.8231   26.8733 C   0  0  0  0  0  0  0  0  0  0  0  0
   -9.2962    2.4021   26.1155 C   0  0  0  0  0  0  0  0  0  0  0  0
   -6.8682    4.5169   28.0704 C   0  0  0  0  0  0  0  0  0  0  0  0
  -10.0578    3.3688   25.5520 C   0  0  0  0  0  0  0  0  0  0  0  0
   -9.6997    4.7480   25.6981 C   0  0  0  0  0  0  0  0  0  0  0  0
   -8.6783    5.1111   26.5262 C   0  0  0  0  0  0  0  0  0  0  0  0
   -8.2232    6.4105   26.9652 C   0  0  1  0  0  0  0  0  0  0  0  0
   -8.9898    7.6331   26.5439 C   0  0  0  0  0  0  0  0  0  0  0  0
   -7.1675    6.3381   27.9517 C   0  0  0  0  0  0  0  0  0  0  0  0
   -7.3519    1.6603   27.5037 C   0  0  0  0  0  0  0  0  0  0  0  0
   -5.9644    1.7715   27.6087 C   0  0  0  0  0  0  0  0  0  0  0  0
   -5.2254    0.7577   28.1916 C   0  0  0  0  0  0  0  0  0  0  0  0
   -5.8307   -0.4991   28.4144 C   0  0  0  0  0  0  0  0  0  0  0  0
   -7.9400    0.4937   27.8777 C   0  0  0  0  0  0  0  0  0  0  0  0
   -5.0676   -1.5678   28.9478 C   0  0  0  0  0  0  0  0  0  0  0  0
   -7.1920   -0.5998   28.2769 C   0  0  0  0  0  0  0  0  0  0  0  0
   -5.2445   -2.5982   28.9359 C   0  0  0  0  0  0  0  0  0  0  0  0
   -4.4241   -3.7147   29.5050 C   0  0  0  0  0  0  0  0  0  0  0  0
   -3.2089   -3.3144   30.0770 C   0  0  0  0  0  0  0  0  0  0  0  0
   -3.7465   -1.0146   29.6294 C   0  0  0  0  0  0  0  0  0  0  0  0
   -2.8900   -1.9514   30.1730 C   0  0  0  0  0  0  0  0  0  0  0  0
  -11.1504    3.0994   24.6132 C   0  0  2  0  0  0  0  0  0  0  0  0
  -11.0837    3.3371   23.3572 C   0  0  0  0  0  0  0  0  0  0  0  0
   -9.9545    3.8034   22.7345 C   0  0  0  0  0  0  0  0  0  0  0  0
   -9.8983    4.1304   21.3313 C   0  0  0  0  0  0  0  0  0  0  0  0
  -12.0146    2.8142   22.3741 C   0  0  0  0  0  0  0  0  0  0  0  0
  -12.0499    3.0747   21.0294 C   0  0  0  0  0  0  0  0  0  0  0  0
  -10.8776    3.7209   20.4904 C   0  0  0  0  0  0  0  0  0  0  0  0
  -12.3547    2.6142   25.2843 C   0  0  0  0  0  0  0  0  0  0  0  0
  -13.3312    3.5106   25.6465 C   0  0  0  0  0  0  0  0  0  0  0  0
  -14.0378    3.6914   26.3395 C   0  0  0  0  0  0  0  0  0  0  0  0
  -15.0084    4.8588   26.5267 C   0  0  0  0  0  0  0  0  0  0  0  0
  -15.0758    5.6959   25.4331 C   0  0  0  0  0  0  0  0  0  0  0  0
  1  4  1  0
  7  8  1  0
  8  9  1  1
  4 10  1  0
  8 10  1  0
  2 11  1  0
 14 16  1  0
 23  5  1  1
 23 30  1  0
 30 31  2  3
 31 32  1  0
 32 33  2  3
 33 34  1  0
 23 24  1  0
 16 18  2  0
 18 19  1  0
 19 20  2  0
 20 22  1  0
 22 21  2  0
 21 16  1  0
 24 25  2  0
 25 26  1  0
 26 29  2  0
 29 28  1  0
 28 27  2  0
 27 24  1  0
 11 12  2  0
 12 13  1  0
 13 14  2  0
 14 17  1  0
 17 15  2  0
 15 11  1  0
  1  2  1  0
  2  3  2  0
  3  5  1  0
  5  6  2  0
  6  7  1  0
  7  1  2  0
M  END
$$$$
