No_9038-complexes_sdf/6BKW-FPZ/2024-09-17-14-21-01/
     RDKit          3D

 37 40  0  0  0  0  0  0  0  0999 V2000
   -7.9040    3.9820   27.1177 C   0  0  0  0  0  0  0  0  0  0  0  0
   -8.2057    2.8231   26.8733 C   0  0  0  0  0  0  0  0  0  0  0  0
   -7.4766    1.7477   27.4593 C   0  0  0  0  0  0  0  0  0  0  0  0
   -8.7468    5.1251   26.6967 C   0  0  0  0  0  0  0  0  0  0  0  0
   -9.7234    4.8589   25.8202 C   0  0  0  0  0  0  0  0  0  0  0  0
   -9.9711    3.5858   25.4266 C   0  0  0  0  0  0  0  0  0  0  0  0
   -9.2266    2.4957   25.9600 C   0  0  0  0  0  0  0  0  0  0  0  0
   -6.2339    1.9237   27.9258 N   0  0  0  0  0  0  0  0  0  0  0  0
   -7.9015    0.3881   27.4320 C   0  0  0  0  0  0  0  0  0  0  0  0
   -5.4088    0.8887   28.3316 C   0  0  0  0  0  0  0  0  0  0  0  0
   -5.1559    0.0810   27.7674 C   0  0  0  0  0  0  0  0  0  0  0  0
   -3.9627   -0.7196   28.3202 C   0  0  0  0  0  0  0  0  0  0  0  0
   -3.2758   -0.2513   29.3996 C   0  0  0  0  0  0  0  0  0  0  0  0
   -3.6636    0.9453   29.9992 C   0  0  0  0  0  0  0  0  0  0  0  0
   -4.5511    1.5211   29.4582 C   0  0  0  0  0  0  0  0  0  0  0  0
   -8.4125    6.5095   27.1105 C   0  0  0  0  0  0  0  0  0  0  0  0
   -8.6233    6.7355   28.2736 F   0  0  0  0  0  0  0  0  0  0  0  0
   -9.1212    7.4600   26.3426 F   0  0  0  0  0  0  0  0  0  0  0  0
   -7.0565    6.7625   26.9704 F   0  0  0  0  0  0  0  0  0  0  0  0
   -2.1433   -1.1124   29.9644 C   0  0  0  0  0  0  0  0  0  0  0  0
   -2.0917   -1.1718   31.2193 F   0  0  0  0  0  0  0  0  0  0  0  0
   -0.9195   -0.5738   29.5678 F   0  0  0  0  0  0  0  0  0  0  0  0
   -2.1831   -2.3299   29.4838 F   0  0  0  0  0  0  0  0  0  0  0  0
  -11.0948    3.2176   24.5718 C   0  0  0  0  0  0  0  0  0  0  0  0
  -12.3108    2.9415   25.0560 C   0  0  0  0  0  0  0  0  0  0  0  0
  -10.8887    3.3041   23.1542 C   0  0  0  0  0  0  0  0  0  0  0  0
  -11.8562    3.0832   22.2287 C   0  0  0  0  0  0  0  0  0  0  0  0
  -13.3814    2.7026   24.1483 C   0  0  0  0  0  0  0  0  0  0  0  0
  -13.1429    2.8080   22.7605 C   0  0  0  0  0  0  0  0  0  0  0  0
   -8.7684   -0.0448   28.5702 C   0  0  0  0  0  0  0  0  0  0  0  0
   -9.6713   -0.9321   28.2425 C   0  0  0  0  0  0  0  0  0  0  0  0
   -9.6385   -1.6889   27.0492 C   0  0  0  0  0  0  0  0  0  0  0  0
   -7.9763   -0.3309   26.2604 C   0  0  0  0  0  0  0  0  0  0  0  0
   -8.7840   -1.3615   26.0829 C   0  0  0  0  0  0  0  0  0  0  0  0
  -10.8014   -3.1474   26.8411 Br  0  0  0  0  0  0  0  0  0  0  0  0
  -12.6494    2.8865   26.7046 Cl  0  0  0  0  0  0  0  0  0  0  0  0
  -11.5418    3.2130   20.4345 Br  0  0  0  0  0  0  0  0  0  0  0  0
  2  3  1  0
  3  8  2  3
  3  9  1  0
  8 10  1  0
  4 16  1  0
 16 17  1  0
 16 18  1  0
 16 19  1  0
 13 20  1  0
 20 21  1  0
 20 22  1  0
 20 23  1  0
  6 24  1  0
 32 35  1  0
 25 36  1  0
 27 37  1  0
 24 25  2  0
 25 28  1  0
 28 29  2  0
 29 27  1  0
 27 26  2  0
 26 24  1  0
  9 30  2  0
 30 31  1  0
 31 32  2  0
 32 34  1  0
 34 33  2  0
 33  9  1  0
  1  2  2  0
  2  7  1  0
  7  6  2  0
  6  5  1  0
  5  4  2  0
  4  1  1  0
 10 11  2  0
 11 12  1  0
 12 13  2  0
 13 14  1  0
 14 15  2  0
 15 10  1  0
M  END
$$$$
