No_9173-complexes_sdf/6BKW-FPZ/2024-09-17-14-21-01/
     RDKit          3D

 30 32  0  0  0  0  0  0  0  0999 V2000
   -7.9040    3.9820   27.1177 C   0  0  0  0  0  0  0  0  0  0  0  0
   -9.0711    4.3164   27.0630 C   0  0  0  0  0  0  0  0  0  0  0  0
  -10.0395    3.8218   27.1938 C   0  0  0  0  0  0  0  0  0  0  0  0
   -7.6424    2.5858   27.3610 C   0  0  0  0  0  0  0  0  0  0  0  0
   -8.7646    1.7754   27.4263 C   0  0  0  0  0  0  0  0  0  0  0  0
   -9.9966    2.3406   27.3957 C   0  0  0  0  0  0  0  0  0  0  0  0
   -5.9676    2.1231   27.3631 Cl  0  0  0  0  0  0  0  0  0  0  0  0
   -9.1623    5.8145   26.9183 F   0  0  0  0  0  0  0  0  0  0  0  0
  -11.2044    1.4792   27.6855 C   0  0  0  0  0  0  0  0  0  0  0  0
  -12.1255    1.9297   28.5166 C   0  0  0  0  0  0  0  0  0  0  0  0
  -13.2722    1.1059   28.8538 C   0  0  0  0  0  0  0  0  0  0  0  0
  -13.2591   -0.1786   28.3330 C   0  0  0  0  0  0  0  0  0  0  0  0
  -11.3756    0.1488   27.3479 C   0  0  0  0  0  0  0  0  0  0  0  0
  -12.3358   -0.6453   27.6234 C   0  0  0  0  0  0  0  0  0  0  0  0
  -12.5179   -2.2707   27.1966 Cl  0  0  0  0  0  0  0  0  0  0  0  0
  -14.5126    1.7562   29.8631 Cl  0  0  0  0  0  0  0  0  0  0  0  0
  -11.3281    4.3235   27.2429 O   0  0  0  0  0  0  0  0  0  0  0  0
  -11.9996    4.4973   26.0906 C   0  0  0  0  0  0  0  0  0  0  0  0
  -13.4258    4.3256   26.1952 C   0  0  2  0  0  0  0  0  0  0  0  0
  -14.0437    4.5594   27.4214 C   0  0  0  0  0  0  0  0  0  0  0  0
  -15.4193    4.5235   27.6094 C   0  0  0  0  0  0  0  0  0  0  0  0
  -16.0339    4.8225   28.8455 C   0  0  0  0  0  0  0  0  0  0  0  0
  -15.4311    5.2579   29.7105 C   0  0  0  0  0  0  0  0  0  0  0  0
  -13.9217    5.2824   29.7307 C   0  0  0  0  0  0  0  0  0  0  0  0
  -13.3483    5.0579   28.6209 C   0  0  0  0  0  0  0  0  0  0  0  0
  -14.1535    3.8517   25.1146 C   0  0  0  0  0  0  0  0  0  0  0  0
  -13.5951    3.4660   24.0408 C   0  0  0  0  0  0  0  0  0  0  0  0
  -14.3323    2.9368   23.0287 C   0  0  0  0  0  0  0  0  0  0  0  0
  -15.6799    2.9125   23.1326 C   0  0  0  0  0  0  0  0  0  0  0  0
  -16.2996    3.2747   24.3034 C   0  0  0  0  0  0  0  0  0  0  0  0
  4  7  1  0
  2  8  1  0
  6  9  1  0
 14 15  1  0
 11 16  1  0
  3 17  1  0
 17 18  1  0
 19 18  1  1
 19 20  1  0
 19 26  1  0
 26 27  2  3
 27 28  1  0
 28 29  2  3
 29 30  1  0
 20 21  2  0
 21 22  1  0
 22 23  2  0
 23 24  1  0
 24 25  2  0
 25 20  1  0
  1  2  2  0
  2  3  1  0
  3  6  2  0
  6  5  1  0
  5  4  2  0
  4  1  1  0
  9 10  2  0
 10 11  1  0
 11 12  2  0
 12 14  1  0
 14 13  2  0
 13  9  1  0
M  END
$$$$
