No_9946-complexes_sdf/6BKW-FPZ/2024-09-17-14-21-01/
     RDKit          3D

 17 18  0  0  0  0  0  0  0  0999 V2000
   -7.9040    3.9820   27.1177 C   0  0  0  0  0  0  0  0  0  0  0  0
   -7.8663    4.8694   27.9238 C   0  0  0  0  0  0  0  0  0  0  0  0
   -7.4547    2.7080   27.4594 C   0  0  0  0  0  0  0  0  0  0  0  0
   -8.0927    6.2909   27.5184 C   0  0  0  0  0  0  0  0  0  0  0  0
   -8.9150    6.5640   26.4331 C   0  0  0  0  0  0  0  0  0  0  0  0
   -7.3743    1.4980   26.9652 C   0  0  0  0  0  0  0  0  0  0  0  0
   -6.7275    0.4485   27.4282 C   0  0  0  0  0  0  0  0  0  0  0  0
   -8.5826    4.1723   25.8829 C   0  0  0  0  0  0  0  0  0  0  0  0
   -9.1646    5.4271   25.5854 C   0  0  0  0  0  0  0  0  0  0  0  0
   -7.0607   -0.8576   27.1597 C   0  0  0  0  0  0  0  0  0  0  0  0
   -6.4178   -1.9461   27.7403 C   0  0  0  0  0  0  0  0  0  0  0  0
   -5.2478   -1.6742   28.5038 C   0  0  0  0  0  0  0  0  0  0  0  0
   -4.8039   -0.3696   28.7170 C   0  0  0  0  0  0  0  0  0  0  0  0
   -5.5163    0.6797   28.2374 C   0  0  0  0  0  0  0  0  0  0  0  0
   -3.6162   -0.1136   29.5890 C   0  0  0  0  0  0  0  0  0  0  0  0
   -3.4997   -0.4742   30.5600 F   0  0  0  0  0  0  0  0  0  0  0  0
   -2.4897   -0.4386   28.7307 F   0  0  0  0  0  0  0  0  0  0  0  0
  1  3  1  0
  3  6  2  3
  6  7  1  0
 13 15  1  0
 15 16  1  0
 15 17  1  0
  1  2  2  0
  2  4  1  0
  4  5  2  0
  5  9  1  0
  9  8  2  0
  8  1  1  0
  7 10  2  0
 10 11  1  0
 11 12  2  0
 12 13  1  0
 13 14  2  0
 14  7  1  0
M  END
$$$$
