No_9062-complexes_sdf/6BKW-FPZ/2024-09-17-14-21-01/
     RDKit          3D

 20 22  0  0  0  0  0  0  0  0999 V2000
   -7.9040    3.9820   27.1177 C   0  0  0  0  0  0  0  0  0  0  0  0
   -7.8663    4.8694   27.9238 C   0  0  0  0  0  0  0  0  0  0  0  0
   -7.4547    2.7080   27.4594 C   0  0  0  0  0  0  0  0  0  0  0  0
   -7.9337    1.5946   26.8372 C   0  0  0  0  0  0  0  0  0  0  0  0
   -8.9032    1.7881   25.8510 C   0  0  0  0  0  0  0  0  0  0  0  0
   -9.3787    2.9871   25.5530 C   0  0  0  0  0  0  0  0  0  0  0  0
   -8.9781    4.0300   26.2200 C   0  0  0  0  0  0  0  0  0  0  0  0
   -8.2132    6.2312   27.6173 N   0  0  0  0  0  0  0  0  0  0  0  0
   -9.1014    6.5119   26.6241 C   0  0  0  0  0  0  0  0  0  0  0  0
   -9.5143    5.3947   25.8857 C   0  0  0  0  0  0  0  0  0  0  0  0
   -7.3340    0.2629   27.1258 C   0  0  0  0  0  0  0  0  0  0  0  0
   -6.1965    0.1714   27.5909 F   0  0  0  0  0  0  0  0  0  0  0  0
   -8.4920   -0.6765   28.0044 Cl  0  0  0  0  0  0  0  0  0  0  0  0
   -7.2111   -0.4355   25.8782 F   0  0  0  0  0  0  0  0  0  0  0  0
  -10.3825    2.9124   24.4365 C   0  0  0  0  0  0  0  0  0  0  0  0
  -10.2690    2.2201   23.3974 C   0  0  0  0  0  0  0  0  0  0  0  0
  -10.8545    2.1889   22.3802 C   0  0  0  0  0  0  0  0  0  0  0  0
  -11.8266    3.2309   22.1086 C   0  0  0  0  0  0  0  0  0  0  0  0
  -11.9781    4.1960   23.1258 C   0  0  0  0  0  0  0  0  0  0  0  0
  -11.2182    4.1810   24.2494 C   0  0  0  0  0  0  0  0  0  0  0  0
  4 11  1  0
 11 12  1  0
 11 13  1  0
 11 14  1  0
  6 15  1  0
 15 16  2  0
 16 17  1  0
 17 18  2  0
 18 19  1  0
 19 20  2  0
 20 15  1  0
  1  2  2  0
  2  8  1  0
  8  9  2  0
  9 10  1  0
 10  7  2  0
  1  3  1  0
  3  4  2  0
  4  5  1  0
  5  6  2  0
  6  7  1  0
  7  1  1  0
M  END
$$$$
