No_9148-complexes_sdf/6BKW-FPZ/2024-09-17-14-21-01/
     RDKit          3D

 33 36  0  0  0  0  0  0  0  0999 V2000
   -7.2496    3.8871   27.4508 C   0  0  0  0  0  0  0  0  0  0  0  0
   -7.9379    4.9063   27.8518 C   0  0  0  0  0  0  0  0  0  0  0  0
   -9.3460    4.8223   27.8695 C   0  0  0  0  0  0  0  0  0  0  0  0
   -7.8628    2.6163   27.1065 C   0  0  0  0  0  0  0  0  0  0  0  0
   -9.2787    2.5744   27.1970 C   0  0  0  0  0  0  0  0  0  0  0  0
  -10.0108    3.6770   27.6340 C   0  0  0  0  0  0  0  0  0  0  0  0
  -11.4834    3.5674   27.7432 C   0  0  0  0  0  0  0  0  0  0  0  0
  -11.9395    2.6434   28.4995 C   0  0  0  0  0  0  0  0  0  0  0  0
  -13.2991    2.5755   28.9391 C   0  0  0  0  0  0  0  0  0  0  0  0
  -14.1285    3.5751   28.4315 C   0  0  0  0  0  0  0  0  0  0  0  0
  -13.6635    4.5859   27.6241 C   0  0  0  0  0  0  0  0  0  0  0  0
  -12.2733    4.7017   27.3545 C   0  0  0  0  0  0  0  0  0  0  0  0
   -7.2545    1.3884   26.8243 C   0  0  0  0  0  0  0  0  0  0  0  0
   -6.1045    0.9675   27.5960 C   0  0  0  0  0  0  0  0  0  0  0  0
   -5.4990   -0.2458   27.3943 C   0  0  0  0  0  0  0  0  0  0  0  0
   -6.0032   -1.0545   26.3927 C   0  0  0  0  0  0  0  0  0  0  0  0
   -7.6505    0.4187   25.9755 C   0  0  0  0  0  0  0  0  0  0  0  0
   -7.1007   -0.7154   25.7058 C   0  0  0  0  0  0  0  0  0  0  0  0
   -4.2802   -0.5818   28.2133 C   0  0  0  0  0  0  0  0  0  0  0  0
   -3.3058    0.1291   28.0453 F   0  0  0  0  0  0  0  0  0  0  0  0
   -4.6481   -0.4094   29.5930 F   0  0  0  0  0  0  0  0  0  0  0  0
   -3.9993   -1.8785   28.1325 F   0  0  0  0  0  0  0  0  0  0  0  0
   -7.3256    6.0952   28.1233 O   0  0  0  0  0  0  0  0  0  0  0  0
  -13.7024    1.3514   29.5686 C   0  0  0  0  0  0  0  0  0  0  0  0
  -14.6867    0.6799   29.1830 N   0  0  0  0  0  0  0  0  0  0  0  0
  -14.9684   -0.3230   29.0314 C   0  0  0  0  0  0  0  0  0  0  0  0
  -16.2166   -0.8520   28.6385 C   0  0  0  0  0  0  0  0  0  0  0  0
  -14.0689   -1.3539   29.1774 F   0  0  0  0  0  0  0  0  0  0  0  0
  -17.0932   -0.0440   28.2975 C   0  0  0  0  0  0  0  0  0  0  0  0
  -18.3611   -0.3938   27.8555 C   0  0  0  0  0  0  0  0  0  0  0  0
  -18.5999   -1.7760   27.7936 C   0  0  0  0  0  0  0  0  0  0  0  0
  -17.6722   -2.6861   28.1334 C   0  0  0  0  0  0  0  0  0  0  0  0
  -16.4545   -2.2503   28.5577 C   0  0  0  0  0  0  0  0  0  0  0  0
  6  7  1  0
  4 13  1  0
 15 19  1  0
 19 20  1  0
 19 21  1  0
 19 22  1  0
  2 23  1  0
  9 24  1  0
 24 25  1  0
 25 26  1  0
 26 28  1  0
 26 27  1  0
  1  2  2  0
  2  3  1  0
  3  6  2  0
  6  5  1  0
  5  4  2  0
  4  1  1  0
 27 29  2  0
 29 30  1  0
 30 31  2  0
 31 32  1  0
 32 33  2  0
 33 27  1  0
 13 14  2  0
 14 15  1  0
 15 16  2  0
 16 18  1  0
 18 17  2  0
 17 13  1  0
  7  8  2  0
  8  9  1  0
  9 10  2  0
 10 11  1  0
 11 12  2  0
 12  7  1  0
M  END
$$$$
