No_9682-complexes_sdf/6BKW-FPZ/2024-09-17-14-21-01/
     RDKit          3D

 40 45  0  0  0  0  0  0  0  0999 V2000
   -7.2496    3.8871   27.4508 C   0  0  0  0  0  0  0  0  0  0  0  0
   -7.9379    4.9063   27.8518 C   0  0  0  0  0  0  0  0  0  0  0  0
   -7.4895    6.2027   27.7481 C   0  0  0  0  0  0  0  0  0  0  0  0
   -7.4700    2.5429   27.5231 C   0  0  0  0  0  0  0  0  0  0  0  0
   -8.8176    2.1756   27.8084 C   0  0  0  0  0  0  0  0  0  0  0  0
   -9.7372    3.2213   28.0689 C   0  0  0  0  0  0  0  0  0  0  0  0
   -9.3528    4.6064   28.1440 C   0  0  0  0  0  0  0  0  0  0  0  0
   -6.6419    1.5779   27.1428 N   0  0  0  0  0  0  0  0  0  0  0  0
   -5.6593    1.2157   28.0535 C   0  0  0  0  0  0  0  0  0  0  0  0
   -4.7783    0.0656   27.6558 C   0  0  0  0  0  0  0  0  0  0  0  0
   -5.0216   -1.1363   28.3199 C   0  0  0  0  0  0  0  0  0  0  0  0
   -5.8974   -1.2544   29.1765 C   0  0  0  0  0  0  0  0  0  0  0  0
  -11.1592    2.9070   28.4574 C   0  0  0  0  0  0  0  0  0  0  0  0
  -11.6060    1.6288   28.3934 C   0  0  0  0  0  0  0  0  0  0  0  0
  -12.9381    1.3087   28.8085 C   0  0  0  0  0  0  0  0  0  0  0  0
  -13.3875    0.0001   28.7832 C   0  0  0  0  0  0  0  0  0  0  0  0
  -12.4870   -0.9992   28.3071 C   0  0  0  0  0  0  0  0  0  0  0  0
  -11.2305   -0.7151   27.8921 C   0  0  0  0  0  0  0  0  0  0  0  0
  -10.7744    0.6163   27.9848 C   0  0  0  0  0  0  0  0  0  0  0  0
   -9.3552    0.8953   27.6496 C   0  0  0  0  0  0  0  0  0  0  0  0
   -4.1548   -2.2618   27.9759 C   0  0  0  0  0  0  0  0  0  0  0  0
   -6.3296   -2.5199   29.8264 C   0  0  1  0  0  0  0  0  0  0  0  0
   -3.2075   -2.1234   27.0201 C   0  0  0  0  0  0  0  0  0  0  0  0
   -2.9673   -0.8382   26.3984 C   0  0  0  0  0  0  0  0  0  0  0  0
   -3.7172    0.2585   26.7256 C   0  0  0  0  0  0  0  0  0  0  0  0
   -5.8466   -2.7223   30.7503 C   0  0  0  0  0  0  0  0  0  0  0  0
   -5.6954   -1.7490   31.8852 C   0  0  0  0  0  0  0  0  0  0  0  0
   -5.7070   -2.0415   33.2291 C   0  0  0  0  0  0  0  0  0  0  0  0
   -6.4111   -2.8462   33.6865 C   0  0  0  0  0  0  0  0  0  0  0  0
   -6.7977   -4.0015   32.8463 C   0  0  2  0  0  0  0  0  0  0  0  0
   -4.6479   -3.6479   31.1615 C   0  0  0  0  0  0  0  0  0  0  0  0
   -7.7607   -4.7915   33.1097 C   0  0  0  0  0  0  0  0  0  0  0  0
   -5.4108   -4.5724   32.1659 C   0  0  0  0  0  0  0  0  0  0  0  0
   -8.6583   -4.5796   33.5939 C   0  0  0  0  0  0  0  0  0  0  0  0
   -9.9133   -5.3159   33.7441 C   0  0  0  0  0  0  0  0  0  0  0  0
   -9.8749   -6.5255   33.0912 C   0  0  0  0  0  0  0  0  0  0  0  0
   -8.8006   -6.8761   32.3793 C   0  0  0  0  0  0  0  0  0  0  0  0
   -7.7436   -6.0408   32.3007 C   0  0  0  0  0  0  0  0  0  0  0  0
   -7.8600   -2.6350   29.7686 C   0  0  0  0  0  0  0  0  0  0  0  0
   -8.4822   -3.6608   29.0807 C   0  0  0  0  0  0  0  0  0  0  0  0
  2  3  1  0
  4  8  1  0
  8  9  1  0
  9 10  1  0
 11 12  1  0
 22 12  1  1
 22 26  1  0
 26 27  2  0
 27 28  1  0
 28 29  2  0
 29 30  1  0
 26 31  1  0
 30 32  1  1
 30 33  1  0
 31 33  1  0
 22 39  1  0
 39 40  2  0
  1  2  2  0
  2  7  1  0
  7  6  2  0
  5  4  2  0
  4  1  1  0
 14 15  1  0
 15 16  2  0
 16 17  1  0
 17 18  2  0
 18 19  1  0
 32 34  2  0
 34 35  1  0
 35 36  2  0
 36 37  1  0
 37 38  2  0
 38 32  1  0
 10 11  1  0
 11 21  2  0
 21 23  1  0
 23 24  2  0
 24 25  1  0
 25 10  2  0
  5  6  1  0
  6 13  1  0
 13 14  2  0
 14 19  1  0
 19 20  2  0
 20  5  1  0
M  END
$$$$
