No_9620-complexes_sdf/6BKW-FPZ/2024-09-17-14-21-01/
     RDKit          3D

 28 30  0  0  0  0  0  0  0  0999 V2000
   -7.9040    3.9820   27.1177 C   0  0  0  0  0  0  0  0  0  0  0  0
   -8.2057    2.8231   26.8733 C   0  0  0  0  0  0  0  0  0  0  0  0
   -7.4766    1.7477   27.4593 C   0  0  0  0  0  0  0  0  0  0  0  0
   -8.7468    5.1251   26.6967 C   0  0  0  0  0  0  0  0  0  0  0  0
   -9.7234    4.8589   25.8202 C   0  0  0  0  0  0  0  0  0  0  0  0
   -9.9711    3.5858   25.4266 C   0  0  0  0  0  0  0  0  0  0  0  0
   -9.2266    2.4957   25.9600 C   0  0  0  0  0  0  0  0  0  0  0  0
   -6.1241    1.9216   27.8574 C   0  0  0  0  0  0  0  0  0  0  0  0
   -5.4248    0.7985   28.3602 C   0  0  0  0  0  0  0  0  0  0  0  0
   -5.9324   -0.4517   28.3727 C   0  0  0  0  0  0  0  0  0  0  0  0
   -7.6975    0.3353   27.3839 C   0  0  0  0  0  0  0  0  0  0  0  0
   -7.1413   -0.6404   27.9162 C   0  0  0  0  0  0  0  0  0  0  0  0
   -8.4183    6.5114   27.1099 C   0  0  0  0  0  0  0  0  0  0  0  0
   -7.9110    7.5657   26.9760 N   0  0  0  0  0  0  0  0  0  0  0  0
   -3.9880    1.1452   28.9047 C   0  0  0  0  0  0  0  0  0  0  0  0
   -3.4275    0.3158   29.7671 N   0  0  0  0  0  0  0  0  0  0  0  0
   -2.6058   -0.7430   29.4828 C   0  0  1  0  0  0  0  0  0  0  0  0
   -2.0504   -0.8964   28.2943 C   0  0  0  0  0  0  0  0  0  0  0  0
   -2.2045   -1.6094   30.5610 C   0  0  0  0  0  0  0  0  0  0  0  0
   -3.9630    0.4245   31.1818 C   0  0  0  0  0  0  0  0  0  0  0  0
   -2.5697   -1.4663   31.8796 C   0  0  0  0  0  0  0  0  0  0  0  0
   -3.5236   -0.4339   32.1764 C   0  0  0  0  0  0  0  0  0  0  0  0
   -2.0680    0.1641   27.3843 C   0  0  2  0  0  0  0  0  0  0  0  0
   -1.4174   -2.0691   27.8918 C   0  0  0  0  0  0  0  0  0  0  0  0
   -2.0071    1.3788   27.6328 F   0  0  0  0  0  0  0  0  0  0  0  0
   -2.3942   -0.1262   25.9997 C   0  0  0  0  0  0  0  0  0  0  0  0
   -3.3873    0.4380   25.4347 N   0  0  0  0  0  0  0  0  0  0  0  0
   -0.1222   -2.2236   28.1201 C   0  0  0  0  0  0  0  0  0  0  0  0
  2  3  1  0
  4 13  1  0
 13 14  3  0
  9 15  1  0
 15 16  1  0
 16 17  1  0
 17 18  1  1
 17 19  1  0
 16 20  1  0
 21 22  1  0
 18 23  1  0
 18 24  1  0
 23 25  1  1
 23 26  1  0
 26 27  1  0
 24 28  2  0
 19 21  1  0
 22 20  1  0
  3  8  2  0
  8  9  1  0
  9 10  2  0
 10 12  1  0
 12 11  2  0
 11  3  1  0
  1  2  2  0
  2  7  1  0
  7  6  2  0
  6  5  1  0
  5  4  2  0
  4  1  1  0
M  END
$$$$
