No_9147-complexes_sdf/6BKW-FPZ/2024-09-17-14-21-01/
     RDKit          3D

 13 14  0  0  0  0  0  0  0  0999 V2000
   -7.7129    4.2099   27.0854 C   0  0  0  0  0  0  0  0  0  0  0  0
   -8.9133    4.4736   27.0998 C   0  0  2  0  0  0  0  0  0  0  0  0
   -9.7135    3.9633   26.0300 C   0  0  0  0  0  0  0  0  0  0  0  0
   -6.8655    4.8824   28.1822 C   0  0  2  0  0  0  0  0  0  0  0  0
  -10.8856    4.5824   25.6430 C   0  0  0  0  0  0  0  0  0  0  0  0
   -5.6986    4.5267   28.3589 N   0  0  0  0  0  0  0  0  0  0  0  0
  -11.5610    4.0864   24.5142 C   0  0  0  0  0  0  0  0  0  0  0  0
  -10.9706    3.1949   23.6849 C   0  0  0  0  0  0  0  0  0  0  0  0
   -9.7912    2.6212   24.0417 C   0  0  0  0  0  0  0  0  0  0  0  0
   -9.0863    3.0259   25.1874 C   0  0  0  0  0  0  0  0  0  0  0  0
   -9.4958    5.3793   28.0674 C   0  0  0  0  0  0  0  0  0  0  0  0
   -7.5247    5.8239   28.9856 C   0  0  0  0  0  0  0  0  0  0  0  0
   -8.7834    6.0520   28.9084 N   0  0  0  0  0  0  0  0  0  0  0  0
  1  2  1  0
  1  4  1  0
  4  6  1  1
  2 11  1  0
  4 12  1  0
 11 13  1  0
 12 13  1  0
  2  3  1  6
  3  5  2  0
  5  7  1  0
  7  8  2  0
  8  9  1  0
  9 10  2  0
 10  3  1  0
M  END
$$$$
