No_959-complexes_sdf/6BKW-FPZ/2024-09-17-14-21-01/
     RDKit          3D

 20 22  0  0  0  0  0  0  0  0999 V2000
   -7.9040    3.9820   27.1177 C   0  0  0  0  0  0  0  0  0  0  0  0
   -8.2057    2.8231   26.8733 C   0  0  0  0  0  0  0  0  0  0  0  0
   -9.2962    2.4021   26.1155 C   0  0  0  0  0  0  0  0  0  0  0  0
   -8.7358    5.0662   26.5917 C   0  0  0  0  0  0  0  0  0  0  0  0
   -9.7618    4.7023   25.7546 C   0  0  0  0  0  0  0  0  0  0  0  0
  -10.0066    3.4105   25.4922 C   0  0  0  0  0  0  0  0  0  0  0  0
   -8.3936    6.4769   26.8843 C   0  0  0  0  0  0  0  0  0  0  0  0
   -8.0660    7.5190   27.0318 N   0  0  0  0  0  0  0  0  0  0  0  0
   -9.5373    0.9624   25.8652 C   0  0  0  0  0  0  0  0  0  0  0  0
   -8.6773    0.1949   25.4962 C   0  0  0  0  0  0  0  0  0  0  0  0
   -8.8758   -1.2092   25.2644 C   0  0  0  0  0  0  0  0  0  0  0  0
  -10.1645   -1.6558   25.4252 C   0  0  0  0  0  0  0  0  0  0  0  0
  -10.8323    0.4208   26.0023 C   0  0  0  0  0  0  0  0  0  0  0  0
  -11.1098   -0.8495   25.8765 C   0  0  0  0  0  0  0  0  0  0  0  0
  -11.1329    3.0812   24.5850 C   0  0  0  0  0  0  0  0  0  0  0  0
  -10.9828    3.5182   23.3136 C   0  0  0  0  0  0  0  0  0  0  0  0
  -11.8365    3.1687   22.2959 C   0  0  0  0  0  0  0  0  0  0  0  0
  -12.9021    2.3352   22.6405 C   0  0  0  0  0  0  0  0  0  0  0  0
  -13.0822    1.9178   23.9390 C   0  0  0  0  0  0  0  0  0  0  0  0
  -12.1475    2.2912   24.9395 C   0  0  0  0  0  0  0  0  0  0  0  0
  4  7  1  0
  7  8  3  0
  3  9  1  0
  6 15  1  0
 15 16  2  0
 16 17  1  0
 17 18  2  0
 18 19  1  0
 19 20  2  0
 20 15  1  0
  1  2  2  0
  2  3  1  0
  3  6  2  0
  6  5  1  0
  5  4  2  0
  4  1  1  0
  9 10  2  0
 10 11  1  0
 11 12  2  0
 12 14  1  0
 14 13  2  0
 13  9  1  0
M  END
$$$$
