No_9353-complexes_sdf/6BKW-FPZ/2024-09-17-14-21-01/
     RDKit          3D

 26 27  0  0  0  0  0  0  0  0999 V2000
   -7.7129    4.2099   27.0854 C   0  0  0  0  0  0  0  0  0  0  0  0
   -7.7814    5.1722   27.8972 C   0  0  0  0  0  0  0  0  0  0  0  0
   -8.8776    3.8408   26.3416 C   0  0  0  0  0  0  0  0  0  0  0  0
   -8.9136    2.6330   25.5655 C   0  0  1  0  0  0  0  0  0  0  0  0
   -8.8361    6.1389   27.9032 C   0  0  0  0  0  0  0  0  0  0  0  0
   -9.9718    4.7048   26.3433 C   0  0  0  0  0  0  0  0  0  0  0  0
   -9.9205    5.8499   27.1013 C   0  0  0  0  0  0  0  0  0  0  0  0
   -8.3007    1.4813   26.1918 C   0  0  0  0  0  0  0  0  0  0  0  0
   -7.8876    1.5748   27.4579 C   0  0  0  0  0  0  0  0  0  0  0  0
   -8.2653    0.2958   25.3812 C   0  0  0  0  0  0  0  0  0  0  0  0
   -8.3187   -0.7230   25.6907 Cl  0  0  0  0  0  0  0  0  0  0  0  0
   -8.1218    0.7277   23.9072 C   0  0  0  0  0  0  0  0  0  0  0  0
  -11.0231    4.4656   25.4268 C   0  0  0  0  0  0  0  0  0  0  0  0
  -10.8731    4.3956   24.1136 C   0  0  0  0  0  0  0  0  0  0  0  0
  -11.8778    4.1853   23.2041 C   0  0  0  0  0  0  0  0  0  0  0  0
  -11.6042    4.0790   21.8024 C   0  0  0  0  0  0  0  0  0  0  0  0
  -10.2595    4.0180   21.4837 C   0  0  0  0  0  0  0  0  0  0  0  0
   -9.2568    4.0165   22.3750 C   0  0  0  0  0  0  0  0  0  0  0  0
   -9.5042    4.1888   23.7060 C   0  0  0  0  0  0  0  0  0  0  0  0
  -10.0531    2.3655   25.2470 F   0  0  0  0  0  0  0  0  0  0  0  0
   -7.7314   -0.3339   23.0458 C   0  0  0  0  0  0  0  0  0  0  0  0
   -8.3027   -1.5361   23.0990 C   0  0  0  0  0  0  0  0  0  0  0  0
   -9.4502   -1.7669   22.8799 N   0  0  0  0  0  0  0  0  0  0  0  0
  -10.2682   -2.5320   23.3619 C   0  0  0  0  0  0  0  0  0  0  0  0
  -11.6831   -2.5267   22.9791 C   0  0  0  0  0  0  0  0  0  0  0  0
  -12.6700   -3.1614   23.5496 C   0  0  0  0  0  0  0  0  0  0  0  0
  3  4  1  0
  4  8  1  0
  8  9  2  0
  8 10  1  0
 10 11  1  0
 10 12  1  0
  6 13  1  0
  4 20  1  1
 12 21  1  0
 21 22  1  0
 22 23  1  0
 23 24  1  0
 24 25  2  3
 25 26  1  0
 13 14  1  0
 14 15  2  0
 15 16  1  0
 16 17  2  0
 17 18  1  0
 18 19  2  0
 19 14  1  0
  1  2  2  0
  2  5  1  0
  5  7  2  0
  7  6  1  0
  6  3  2  0
  3  1  1  0
M  END
$$$$
