No_9600-complexes_sdf/6BKW-FPZ/2024-09-17-14-21-01/
     RDKit          3D

 27 29  0  0  0  0  0  0  0  0999 V2000
   -7.9040    3.9820   27.1177 C   0  0  0  0  0  0  0  0  0  0  0  0
   -9.0711    4.3164   27.0630 C   0  0  0  0  0  0  0  0  0  0  0  0
   -9.5182    5.5541   27.5777 C   0  0  0  0  0  0  0  0  0  0  0  0
   -7.4468    2.6843   26.6499 C   0  0  0  0  0  0  0  0  0  0  0  0
   -8.3856    1.7878   26.2216 C   0  0  0  0  0  0  0  0  0  0  0  0
   -9.6812    2.2328   26.0889 C   0  0  0  0  0  0  0  0  0  0  0  0
  -10.0147    3.4312   26.5259 C   0  0  0  0  0  0  0  0  0  0  0  0
   -7.9132    0.4733   25.8127 C   0  0  0  0  0  0  0  0  0  0  0  0
   -7.9749    0.1125   24.6898 O   0  0  0  0  0  0  0  0  0  0  0  0
   -7.3650   -0.3667   26.7877 N   0  0  0  0  0  0  0  0  0  0  0  0
   -6.8458   -1.6558   26.4844 C   0  0  0  0  0  0  0  0  0  0  0  0
   -8.9555    6.6064   27.0978 F   0  0  0  0  0  0  0  0  0  0  0  0
   -9.4001    5.6848   28.9864 F   0  0  0  0  0  0  0  0  0  0  0  0
  -10.8826    5.7412   27.5225 F   0  0  0  0  0  0  0  0  0  0  0  0
   -6.1629   -2.2306   27.1208 C   0  0  0  0  0  0  0  0  0  0  0  0
   -5.8267   -1.7183   28.5253 C   0  0  0  0  0  0  0  0  0  0  0  0
   -5.0394   -2.3793   29.4741 C   0  0  0  0  0  0  0  0  0  0  0  0
   -4.8934   -1.6265   30.6714 C   0  0  0  0  0  0  0  0  0  0  0  0
   -4.4142   -0.5866   30.9615 C   0  0  0  0  0  0  0  0  0  0  0  0
   -4.5224    0.3624   29.7117 C   0  0  0  0  0  0  0  0  0  0  0  0
   -5.1340   -0.2095   28.5551 C   0  0  0  0  0  0  0  0  0  0  0  0
   -3.8745    0.1011   32.0780 C   0  0  0  0  0  0  0  0  0  0  0  0
   -3.9017   -0.7310   33.2487 C   0  0  0  0  0  0  0  0  0  0  0  0
   -4.4263   -2.0778   33.1218 C   0  0  0  0  0  0  0  0  0  0  0  0
   -4.8139   -2.5779   31.9776 C   0  0  0  0  0  0  0  0  0  0  0  0
   -3.2243   -0.1587   34.7256 Cl  0  0  0  0  0  0  0  0  0  0  0  0
   -6.8838    4.6962   27.7607 O   0  0  0  0  0  0  0  0  0  0  0  0
  2  3  1  0
  5  8  1  0
  8  9  2  0
  8 10  1  0
 10 11  1  0
  3 12  1  0
  3 13  1  0
  3 14  1  0
 11 15  2  3
 15 16  1  0
 23 26  1  0
  1 27  1  0
 19 22  2  0
 22 23  1  0
 23 24  2  0
 24 25  1  0
 25 18  2  0
  1  2  2  0
  2  7  1  0
  7  6  2  0
  6  5  1  0
  5  4  2  0
  4  1  1  0
 16 17  2  0
 17 18  1  0
 18 19  1  0
 19 20  1  0
 20 21  2  0
 21 16  1  0
M  END
$$$$
