No_9030-complexes_sdf/6BKW-FPZ/2024-09-17-14-21-01/
     RDKit          3D

 21 22  0  0  0  0  0  0  0  0999 V2000
   -7.9040    3.9820   27.1177 C   0  0  0  0  0  0  0  0  0  0  0  0
   -8.2057    2.8231   26.8733 C   0  0  0  0  0  0  0  0  0  0  0  0
   -9.2962    2.4021   26.1155 C   0  0  0  0  0  0  0  0  0  0  0  0
   -8.7358    5.0662   26.5917 C   0  0  0  0  0  0  0  0  0  0  0  0
   -9.7618    4.7023   25.7546 C   0  0  0  0  0  0  0  0  0  0  0  0
  -10.0066    3.4105   25.4922 C   0  0  0  0  0  0  0  0  0  0  0  0
   -8.3943    6.4761   26.8801 C   0  0  0  0  0  0  0  0  0  0  0  0
   -8.0394    6.8605   28.0789 N   0  0  0  0  0  0  0  0  0  0  0  0
   -8.6521    7.3455   25.9749 O   0  0  0  0  0  0  0  0  0  0  0  0
   -7.4194    1.7502   27.4668 N   0  0  0  0  0  0  0  0  0  0  0  0
   -6.0951    1.9352   27.7410 C   0  0  0  0  0  0  0  0  0  0  0  0
   -5.3632    0.7254   28.2630 C   0  0  0  0  0  0  0  0  0  0  0  0
   -6.1117   -0.4118   28.1910 C   0  0  0  0  0  0  0  0  0  0  0  0
   -7.6206    0.3321   27.5433 C   0  0  0  0  0  0  0  0  0  0  0  0
   -3.9969    0.7310   28.7190 C   0  0  0  0  0  0  0  0  0  0  0  0
   -3.7327   -0.0936   29.8098 C   0  0  0  0  0  0  0  0  0  0  0  0
   -3.5223   -1.0909   30.0862 C   0  0  0  0  0  0  0  0  0  0  0  0
   -3.5106   -2.1359   29.0700 C   0  0  0  0  0  0  0  0  0  0  0  0
   -3.5113   -1.9851   28.0094 F   0  0  0  0  0  0  0  0  0  0  0  0
   -3.3190   -3.4020   29.5046 F   0  0  0  0  0  0  0  0  0  0  0  0
   -8.5660   -0.3099   27.3906 O   0  0  0  0  0  0  0  0  0  0  0  0
  4  7  1  0
  7  8  1  0
  7  9  2  0
  2 10  1  0
 10 11  1  0
 11 12  2  0
 12 13  1  0
 10 14  1  0
 13 14  1  0
 12 15  1  0
 15 16  2  3
 16 17  1  0
 17 18  1  0
 18 19  1  0
 18 20  1  0
 14 21  2  0
  1  2  2  0
  2  3  1  0
  3  6  2  0
  6  5  1  0
  5  4  2  0
  4  1  1  0
M  END
$$$$
