No_9188-complexes_sdf/6BKW-FPZ/2024-09-17-14-21-01/
     RDKit          3D

 15 16  0  0  0  0  0  0  0  0999 V2000
   -7.9040    3.9820   27.1177 C   0  0  0  0  0  0  0  0  0  0  0  0
   -9.0711    4.3164   27.0630 C   0  0  0  0  0  0  0  0  0  0  0  0
   -9.8698    3.9665   25.9494 C   0  0  0  0  0  0  0  0  0  0  0  0
   -7.4046    2.7946   26.4568 C   0  0  0  0  0  0  0  0  0  0  0  0
   -8.3645    2.1023   25.7152 C   0  0  0  0  0  0  0  0  0  0  0  0
   -9.5483    2.7427   25.4386 C   0  0  0  0  0  0  0  0  0  0  0  0
   -6.9316    4.4002   28.0668 N   0  0  0  0  0  0  0  0  0  0  0  0
  -10.4487    2.1745   24.4014 C   0  0  0  0  0  0  0  0  0  0  0  0
   -9.8857    1.9317   23.1819 C   0  0  0  0  0  0  0  0  0  0  0  0
  -10.6165    1.3878   22.0668 C   0  0  0  0  0  0  0  0  0  0  0  0
  -11.9236    1.1688   22.2330 C   0  0  0  0  0  0  0  0  0  0  0  0
  -11.7829    2.0071   24.4969 C   0  0  0  0  0  0  0  0  0  0  0  0
  -12.4340    1.6868   23.6753 C   0  0  0  0  0  0  0  0  0  0  0  0
   -7.1789    5.6743   28.6844 C   0  0  0  0  0  0  0  0  0  0  0  0
   -5.6087    3.9296   28.0732 C   0  0  0  0  0  0  0  0  0  0  0  0
  1  7  1  0
  6  8  1  0
  7 14  1  0
  7 15  1  0
  1  2  2  0
  2  3  1  0
  3  6  2  0
  6  5  1  0
  5  4  2  0
  4  1  1  0
  8  9  2  0
  9 10  1  0
 10 11  2  0
 11 13  1  0
 13 12  2  0
 12  8  1  0
M  END
$$$$
