No_9231-complexes_sdf/6BKW-FPZ/2024-09-17-14-21-01/
     RDKit          3D

 34 38  0  0  0  0  0  0  0  0999 V2000
   -7.2496    3.8871   27.4508 C   0  0  0  0  0  0  0  0  0  0  0  0
   -7.6161    2.7143   27.1523 C   0  0  0  0  0  0  0  0  0  0  0  0
   -8.8302    2.4659   26.5056 C   0  0  0  0  0  0  0  0  0  0  0  0
   -8.1584    5.0090   27.3234 C   0  0  0  0  0  0  0  0  0  0  0  0
   -9.3788    4.7965   26.7695 C   0  0  0  0  0  0  0  0  0  0  0  0
   -9.7028    3.5649   26.3276 C   0  0  0  0  0  0  0  0  0  0  0  0
   -6.7182    1.5519   27.3631 C   0  0  0  0  0  0  0  0  0  0  0  0
   -5.4694    1.7365   28.0694 C   0  0  0  0  0  0  0  0  0  0  0  0
   -4.6099    0.6493   28.2636 C   0  0  0  0  0  0  0  0  0  0  0  0
   -5.0409   -0.6158   27.9742 C   0  0  0  0  0  0  0  0  0  0  0  0
   -7.0634    0.2198   27.1421 C   0  0  0  0  0  0  0  0  0  0  0  0
   -6.3148   -0.8059   27.4599 C   0  0  0  0  0  0  0  0  0  0  0  0
   -7.6940    6.3688   27.7858 C   0  0  0  0  0  0  0  0  0  0  0  0
   -3.0652    0.9770   28.9951 Cl  0  0  0  0  0  0  0  0  0  0  0  0
  -10.9840    3.3497   25.6218 C   0  0  2  0  0  0  0  0  0  0  0  0
  -10.9684    3.3568   24.2702 C   0  0  0  0  0  0  0  0  0  0  0  0
  -10.2046    3.9065   23.5580 C   0  0  0  0  0  0  0  0  0  0  0  0
  -10.2256    4.0670   22.0939 C   0  0  0  0  0  0  0  0  0  0  0  0
  -11.2637    3.4044   21.4450 C   0  0  0  0  0  0  0  0  0  0  0  0
  -12.1710    2.6822   22.1891 C   0  0  0  0  0  0  0  0  0  0  0  0
  -12.1075    2.7348   23.5432 C   0  0  0  0  0  0  0  0  0  0  0  0
  -11.9247    4.3981   26.2900 C   0  0  0  0  0  0  0  0  0  0  0  0
  -11.4476    1.8818   26.1533 C   0  0  1  0  0  0  0  0  0  0  0  0
  -12.5504    1.7855   26.8821 C   0  0  0  0  0  0  0  0  0  0  0  0
  -13.2662    2.8557   27.4120 C   0  0  0  0  0  0  0  0  0  0  0  0
  -13.0396    4.1704   26.9982 C   0  0  0  0  0  0  0  0  0  0  0  0
   -7.6852    7.3544   26.6255 Cl  0  0  0  0  0  0  0  0  0  0  0  0
  -10.7671    0.7479   25.6842 C   0  0  0  0  0  0  0  0  0  0  0  0
  -11.4343   -0.1662   24.9164 C   0  0  0  0  0  0  0  0  0  0  0  0
  -11.0116   -1.1771   24.8402 C   0  0  0  0  0  0  0  0  0  0  0  0
  -11.7001   -2.2761   24.1015 C   0  0  0  0  0  0  0  0  0  0  0  0
  -12.8756   -1.9071   23.5003 C   0  0  0  0  0  0  0  0  0  0  0  0
  -13.3933   -0.6469   23.6887 C   0  0  0  0  0  0  0  0  0  0  0  0
  -12.6742    0.2653   24.4518 C   0  0  0  0  0  0  0  0  0  0  0  0
  2  7  1  0
  4 13  1  0
  9 14  1  0
 15  6  1  1
 15 16  1  0
 15 22  1  0
 15 23  1  0
 24 25  1  0
 22 26  1  0
 13 27  1  0
 23 28  1  6
 28 29  1  0
 26 25  1  0
 24 23  1  0
  1  2  2  0
  2  3  1  0
  3  6  2  0
  6  5  1  0
  5  4  2  0
  4  1  1  0
 29 30  2  0
 30 31  1  0
 31 32  2  0
 32 33  1  0
 33 34  2  0
 34 29  1  0
  7  8  2  0
  8  9  1  0
  9 10  2  0
 10 12  1  0
 12 11  2  0
 11  7  1  0
 16 17  2  0
 17 18  1  0
 18 19  2  0
 19 20  1  0
 20 21  2  0
 21 16  1  0
M  END
$$$$
