No_9302-complexes_sdf/6BKW-FPZ/2024-09-17-14-21-01/
     RDKit          3D

 11 11  0  0  0  0  0  0  0  0999 V2000
   -7.7129    4.2099   27.0854 C   0  0  0  0  0  0  0  0  0  0  0  0
   -7.7814    5.1722   27.8972 C   0  0  0  0  0  0  0  0  0  0  0  0
   -8.8998    3.8713   26.3707 C   0  0  0  0  0  0  0  0  0  0  0  0
   -9.7416    3.2213   26.9591 C   0  0  0  0  0  0  0  0  0  0  0  0
  -10.4037    4.0341   28.0402 C   0  0  0  0  0  0  0  0  0  0  0  0
  -11.6019    3.3299   28.6669 C   0  0  0  0  0  0  0  0  0  0  0  0
   -8.5000    6.3342   27.6885 C   0  0  0  0  0  0  0  0  0  0  0  0
  -10.0377    1.8290   26.9293 C   0  0  0  0  0  0  0  0  0  0  0  0
  -11.1845    1.2897   27.4686 C   0  0  0  0  0  0  0  0  0  0  0  0
  -11.8648    2.0417   28.5577 C   0  0  0  0  0  0  0  0  0  0  0  0
   -8.4310    6.8234   26.2895 C   0  0  0  0  0  0  0  0  0  0  0  0
  1  2  1  0
  1  3  1  0
  3  4  1  0
  2  7  1  0
  7 11  1  0
  4  5  2  0
  5  6  1  0
  6 10  2  0
 10  9  1  0
  9  8  2  0
  8  4  1  0
M  END
$$$$
