No_9191-complexes_sdf/6BKW-FPZ/2024-09-17-14-21-01/
     RDKit          3D

 40 44  0  0  0  0  0  0  0  0999 V2000
   -7.9040    3.9820   27.1177 C   0  0  0  0  0  0  0  0  0  0  0  0
   -7.8663    4.8694   27.9238 C   0  0  0  0  0  0  0  0  0  0  0  0
   -9.0491    3.8523   26.2542 C   0  0  0  0  0  0  0  0  0  0  0  0
   -8.7661    5.9491   27.9690 C   0  0  0  0  0  0  0  0  0  0  0  0
   -9.9295    4.8502   26.2323 C   0  0  0  0  0  0  0  0  0  0  0  0
   -9.8077    5.9288   27.0933 C   0  0  0  0  0  0  0  0  0  0  0  0
   -6.9996    2.9096   27.1565 O   0  0  0  0  0  0  0  0  0  0  0  0
   -7.3398    1.5998   26.9303 C   0  0  0  0  0  0  0  0  0  0  0  0
   -8.4690    1.2494   26.3568 C   0  0  0  0  0  0  0  0  0  0  0  0
   -9.3723    2.4824   25.7650 C   0  0  1  0  0  0  0  0  0  0  0  0
   -6.4067    0.6011   27.3932 C   0  0  0  0  0  0  0  0  0  0  0  0
   -5.0996    1.0265   27.8573 C   0  0  0  0  0  0  0  0  0  0  0  0
   -4.2077    0.2508   28.3349 C   0  0  0  0  0  0  0  0  0  0  0  0
   -4.4807   -1.0855   28.5764 C   0  0  0  0  0  0  0  0  0  0  0  0
   -5.7751   -1.5258   28.2053 C   0  0  0  0  0  0  0  0  0  0  0  0
   -6.7130   -0.6900   27.6743 C   0  0  0  0  0  0  0  0  0  0  0  0
  -10.3946    2.1856   24.9058 C   0  0  0  0  0  0  0  0  0  0  0  0
  -10.1138    1.5723   23.7935 C   0  0  0  0  0  0  0  0  0  0  0  0
  -10.9359    1.5676   22.6712 C   0  0  0  0  0  0  0  0  0  0  0  0
  -10.4959    0.8946   21.4741 C   0  0  0  0  0  0  0  0  0  0  0  0
   -9.3101    0.1178   21.5186 C   0  0  0  0  0  0  0  0  0  0  0  0
   -8.4984    0.1011   22.6317 C   0  0  0  0  0  0  0  0  0  0  0  0
   -8.8300    0.8020   23.7085 C   0  0  0  0  0  0  0  0  0  0  0  0
   -7.2640   -0.7133   22.5347 C   0  0  0  0  0  0  0  0  0  0  0  0
   -6.2976   -0.5065   23.4346 N   0  0  0  0  0  0  0  0  0  0  0  0
   -7.0552   -1.5869   21.6525 O   0  0  0  0  0  0  0  0  0  0  0  0
   -3.5054   -1.9737   29.2035 C   0  0  2  0  0  0  0  0  0  0  0  0
   -3.2660   -1.7951   30.5500 C   0  0  0  0  0  0  0  0  0  0  0  0
   -3.7014   -0.7222   31.1864 C   0  0  0  0  0  0  0  0  0  0  0  0
   -3.3908   -0.4695   32.5813 C   0  0  0  0  0  0  0  0  0  0  0  0
   -2.5164   -1.2726   33.2692 C   0  0  0  0  0  0  0  0  0  0  0  0
   -2.0120   -2.3995   32.6109 C   0  0  0  0  0  0  0  0  0  0  0  0
   -2.3223   -2.6026   31.2811 C   0  0  0  0  0  0  0  0  0  0  0  0
   -2.8516   -2.8572   28.3727 C   0  0  0  0  0  0  0  0  0  0  0  0
   -2.9400   -2.8650   26.9980 C   0  0  2  0  0  0  0  0  0  0  0  0
   -2.7790   -1.8497   26.2190 C   0  0  0  0  0  0  0  0  0  0  0  0
   -3.3652   -4.0836   26.3849 C   0  0  0  0  0  0  0  0  0  0  0  0
   -3.7367   -4.1713   25.1226 C   0  0  0  0  0  0  0  0  0  0  0  0
   -5.0846   -3.9795   24.7861 C   0  0  0  0  0  0  0  0  0  0  0  0
   -6.0190   -4.0087   25.6897 C   0  0  0  0  0  0  0  0  0  0  0  0
  1  7  1  0
  7  8  1  0
  8  9  2  0
  3 10  1  0
  9 10  1  0
  8 11  1  0
 10 17  1  1
 17 18  1  0
 22 24  1  0
 24 25  1  0
 24 26  2  0
 14 27  1  0
 27 28  1  0
 27 34  1  6
 34 35  1  0
 35 36  1  1
 35 37  1  0
 37 38  1  0
 38 39  2  3
 39 40  1  0
 18 19  2  0
 19 20  1  0
 20 21  2  0
 21 22  1  0
 22 23  2  0
 23 18  1  0
 11 12  2  0
 12 13  1  0
 13 14  2  0
 14 15  1  0
 15 16  2  0
 16 11  1  0
  1  2  2  0
  2  4  1  0
  4  6  2  0
  6  5  1  0
  5  3  2  0
  3  1  1  0
 28 29  2  0
 29 30  1  0
 30 31  2  0
 31 32  1  0
 32 33  2  0
 33 28  1  0
M  END
$$$$
