No_9630-complexes_sdf/6BKW-FPZ/2024-09-17-14-21-01/
     RDKit          3D

 19 20  0  0  0  0  0  0  0  0999 V2000
   -7.9040    3.9820   27.1177 C   0  0  0  0  0  0  0  0  0  0  0  0
   -8.2057    2.8231   26.8733 C   0  0  0  0  0  0  0  0  0  0  0  0
   -8.7695    5.0740   26.7916 C   0  0  0  0  0  0  0  0  0  0  0  0
   -8.4337    6.4678   27.0913 C   0  0  0  0  0  0  0  0  0  0  0  0
   -9.3742    2.4311   26.2346 C   0  0  0  0  0  0  0  0  0  0  0  0
  -10.2395    3.4267   25.8887 C   0  0  0  0  0  0  0  0  0  0  0  0
   -9.9567    4.7548   26.1374 C   0  0  0  0  0  0  0  0  0  0  0  0
   -8.7531    7.4243   26.4062 N   0  0  0  0  0  0  0  0  0  0  0  0
   -7.3011    6.5674   27.8493 O   0  0  0  0  0  0  0  0  0  0  0  0
   -7.1042    1.4957   27.3672 Cl  0  0  0  0  0  0  0  0  0  0  0  0
  -11.4786    3.1067   25.1394 C   0  0  2  0  0  0  0  0  0  0  0  0
  -11.6766    2.4090   23.7807 Cl  0  0  0  0  0  0  0  0  0  0  0  0
  -12.7085    3.6138   25.8112 C   0  0  0  0  0  0  0  0  0  0  0  0
  -12.7942    3.7299   27.1414 C   0  0  0  0  0  0  0  0  0  0  0  0
  -12.1548    3.0613   28.0764 C   0  0  0  0  0  0  0  0  0  0  0  0
  -12.4176    3.2207   29.5376 C   0  0  0  0  0  0  0  0  0  0  0  0
  -13.5152    3.9775   29.9356 C   0  0  0  0  0  0  0  0  0  0  0  0
  -13.9912    4.4479   27.7510 C   0  0  0  0  0  0  0  0  0  0  0  0
  -14.2454    4.6354   29.0270 C   0  0  0  0  0  0  0  0  0  0  0  0
  3  4  1  0
  4  8  1  0
  4  9  2  0
  2 10  1  0
  6 11  1  0
 11 12  1  6
 11 13  1  0
 13 14  1  0
 14 15  2  0
 15 16  1  0
 16 17  2  0
 17 19  1  0
 19 18  2  0
 18 14  1  0
  1  2  2  0
  2  5  1  0
  5  6  2  0
  6  7  1  0
  7  3  2  0
  3  1  1  0
M  END
$$$$
