No_9284-complexes_sdf/6BKW-FPZ/2024-09-17-14-21-01/
     RDKit          3D

 26 28  0  0  0  0  0  0  0  0999 V2000
   -7.7129    4.2099   27.0854 C   0  0  0  0  0  0  0  0  0  0  0  0
   -7.7814    5.1722   27.8972 C   0  0  0  0  0  0  0  0  0  0  0  0
   -7.3155    2.9699   27.6145 C   0  0  0  0  0  0  0  0  0  0  0  0
   -7.1760    1.9119   26.6708 C   0  0  0  0  0  0  0  0  0  0  0  0
   -6.6384    0.7154   27.2306 C   0  0  0  0  0  0  0  0  0  0  0  0
   -8.5125    6.2959   27.5421 C   0  0  0  0  0  0  0  0  0  0  0  0
   -7.4135   -0.4232   27.2581 C   0  0  0  0  0  0  0  0  0  0  0  0
   -7.1908   -1.4066   28.1515 C   0  0  0  0  0  0  0  0  0  0  0  0
   -5.9487   -1.4247   28.8702 C   0  0  0  0  0  0  0  0  0  0  0  0
   -5.0560   -0.3324   28.7322 C   0  0  0  0  0  0  0  0  0  0  0  0
   -5.4631    0.7849   27.9712 C   0  0  0  0  0  0  0  0  0  0  0  0
   -3.8224   -0.2543   29.5456 C   0  0  0  0  0  0  0  0  0  0  0  0
   -3.8522   -0.3308   30.5600 O   0  0  0  0  0  0  0  0  0  0  0  0
   -2.6632   -0.1202   28.7365 N   0  0  0  0  0  0  0  0  0  0  0  0
   -8.5939    4.2677   26.0267 C   0  0  0  0  0  0  0  0  0  0  0  0
   -9.3941    5.3397   25.6478 C   0  0  0  0  0  0  0  0  0  0  0  0
   -9.2326    6.5081   26.4687 C   0  0  0  0  0  0  0  0  0  0  0  0
   -2.5869    0.0051   27.3051 C   0  0  0  0  0  0  0  0  0  0  0  0
   -1.9086    0.5000   26.7358 C   0  0  0  0  0  0  0  0  0  0  0  0
   -2.7860   -1.3884   26.7075 C   0  0  0  0  0  0  0  0  0  0  0  0
   -3.1184   -2.5183   27.2587 C   0  0  0  0  0  0  0  0  0  0  0  0
   -3.2286   -3.4900   26.6969 C   0  0  0  0  0  0  0  0  0  0  0  0
   -3.2734   -3.5677   25.2503 C   0  0  0  0  0  0  0  0  0  0  0  0
   -3.1389   -2.3600   24.6058 C   0  0  0  0  0  0  0  0  0  0  0  0
   -2.8100   -1.2312   25.2798 C   0  0  0  0  0  0  0  0  0  0  0  0
   -1.8311    1.6559   26.4210 O   0  0  0  0  0  0  0  0  0  0  0  0
  1  3  1  0
  3  4  2  3
  4  5  1  0
 10 12  1  0
 12 13  2  0
 12 14  1  0
 14 18  1  0
 18 19  2  0
 18 20  1  0
 19 26  2  0
  5  7  2  0
  7  8  1  0
  8  9  2  0
  9 10  1  0
 10 11  2  0
 11  5  1  0
 20 21  2  0
 21 22  1  0
 22 23  2  0
 23 24  1  0
 24 25  2  0
 25 20  1  0
  1  2  2  0
  2  6  1  0
  6 17  2  0
 17 16  1  0
 16 15  2  0
 15  1  1  0
M  END
$$$$
