No_0-gen_results/4M15/2024-09-16-15-11-11/
     RDKit          3D

 34 37  0  0  0  0  0  0  0  0999 V2000
    4.6705    4.0089    3.6614 O   0  0  0  0  0  0  0  0  0  0  0  0
    5.6670    4.7864    3.4879 C   0  0  0  0  0  0  0  0  0  0  0  0
    5.8693    4.9907    2.0451 C   0  0  0  0  0  0  0  0  0  0  0  0
    7.0657    5.5927    1.5932 C   0  0  0  0  0  0  0  0  0  0  0  0
    7.9543    6.0041    2.5818 C   0  0  0  0  0  0  0  0  0  0  0  0
    8.0147    5.4731    3.8454 C   0  0  0  0  0  0  0  0  0  0  0  0
    6.8523    4.7835    4.2304 C   0  0  0  0  0  0  0  0  0  0  0  0
    4.8931    4.9046    1.1752 O   0  0  0  0  0  0  0  0  0  0  0  0
    8.9691    5.7129    4.6855 O   0  0  0  0  0  0  0  0  0  0  0  0
    9.0654    6.7732    2.1976 O   0  0  0  0  0  0  0  0  0  0  0  0
    8.8005    8.2264    2.0252 C   0  0  0  0  0  0  0  0  0  0  0  0
    9.3644    9.0295    2.9867 C   0  0  0  0  0  0  0  0  0  0  0  0
    8.3354    9.9975    3.5278 C   0  0  0  0  0  0  0  0  0  0  0  0
    8.5765   10.9962    4.3893 C   0  0  0  0  0  0  0  0  0  0  0  0
    7.3791   11.8417    4.7983 C   0  0  0  0  0  0  0  0  0  0  0  0
    6.2207   11.6852    3.9597 C   0  0  0  0  0  0  0  0  0  0  0  0
    6.0470   10.5536    3.2842 N   0  0  0  0  0  0  0  0  0  0  0  0
    7.0437    9.7858    2.9783 C   0  0  0  0  0  0  0  0  0  0  0  0
    5.4372   12.7624    3.7879 N   0  0  0  0  0  0  0  0  0  0  0  0
    4.2963   12.7559    3.0810 C   0  0  0  0  0  0  0  0  0  0  0  0
    3.8269   14.0852    3.0063 N   0  0  0  0  0  0  0  0  0  0  0  0
    3.3839   14.9129    2.0439 C   0  0  0  0  0  0  0  0  0  0  0  0
    3.8735   14.9132    0.8171 C   0  0  0  0  0  0  0  0  0  0  0  0
    3.9174   16.1535    0.0682 C   0  0  0  0  0  0  0  0  0  0  0  0
    3.8186   17.2527    0.7645 C   0  0  0  0  0  0  0  0  0  0  0  0
    3.4309   17.3167    2.1481 C   0  0  0  0  0  0  0  0  0  0  0  0
    2.8052   16.1296    2.5427 C   0  0  0  0  0  0  0  0  0  0  0  0
    4.1235   18.6164    0.0941 C   0  0  0  0  0  0  0  0  0  0  0  0
    4.4248   19.6379    0.6390 C   0  0  0  0  0  0  0  0  0  0  0  0
    4.7980   20.8933   -0.0367 C   0  0  0  0  0  0  0  0  0  0  0  0
    4.9398   20.8350   -1.3939 C   0  0  0  0  0  0  0  0  0  0  0  0
    4.3473   18.5364   -1.3473 C   0  0  0  0  0  0  0  0  0  0  0  0
    4.7137   19.6867   -2.0439 C   0  0  0  0  0  0  0  0  0  0  0  0
    4.5296   16.0311   -1.1272 F   0  0  0  0  0  0  0  0  0  0  0  0
  1  2  1  0
  3  8  1  0
  6  9  1  0
  5 10  1  0
 10 11  1  0
 11 12  1  0
 12 13  1  0
 16 19  1  0
 19 20  1  0
 20 21  1  0
 21 22  1  0
 25 28  1  0
 24 34  1  0
  2  3  2  0
  3  4  1  0
  4  5  2  0
  5  6  1  0
  6  7  2  0
  7  2  1  0
 13 14  2  0
 14 15  1  0
 15 16  2  0
 16 17  1  0
 17 18  2  0
 18 13  1  0
 28 29  2  0
 29 30  1  0
 30 31  2  0
 31 33  1  0
 33 32  2  0
 32 28  1  0
 22 23  2  0
 23 24  1  0
 24 25  2  0
 25 26  1  0
 26 27  2  0
 27 22  1  0
M  END

$$$$
No_1-gen_results/4M15/2024-09-16-15-11-11/
     RDKit          3D

 16 16  0  0  0  0  0  0  0  0999 V2000
    4.6705    4.0089    3.6614 O   0  0  0  0  0  0  0  0  0  0  0  0
    5.6670    4.7864    3.4879 C   0  0  0  0  0  0  0  0  0  0  0  0
    6.0436    4.7354    1.9702 C   0  0  0  0  0  0  0  0  0  0  0  0
    7.1566    5.5297    1.5731 C   0  0  0  0  0  0  0  0  0  0  0  0
    7.9085    6.1849    2.5113 C   0  0  0  0  0  0  0  0  0  0  0  0
    7.9219    5.8079    3.8359 C   0  0  0  0  0  0  0  0  0  0  0  0
    6.8481    5.0092    4.2160 N   0  0  0  0  0  0  0  0  0  0  0  0
    8.8228    6.1031    4.7150 N   0  0  0  0  0  0  0  0  0  0  0  0
    5.1080    4.4839    1.1143 O   0  0  0  0  0  0  0  0  0  0  0  0
    7.3437    5.6945    0.2633 O   0  0  0  0  0  0  0  0  0  0  0  0
    8.6769    7.2157    2.0802 O   0  0  0  0  0  0  0  0  0  0  0  0
    8.4570    8.5750    2.5683 C   0  0  0  0  0  0  0  0  0  0  0  0
    7.0723    9.0227    2.5940 C   0  0  0  0  0  0  0  0  0  0  0  0
    7.1328   10.2335    3.5029 C   0  0  0  0  0  0  0  0  0  0  0  0
    6.4420   10.0709    4.8220 C   0  0  0  0  0  0  0  0  0  0  0  0
    7.4925   11.4214    3.1896 O   0  0  0  0  0  0  0  0  0  0  0  0
  1  2  2  0
  2  3  1  0
  3  4  1  0
  4  5  1  0
  5  6  1  0
  2  7  1  0
  6  7  1  0
  6  8  1  0
  3  9  1  0
  4 10  1  0
  5 11  1  0
 11 12  1  0
 12 13  1  0
 13 14  1  0
 14 15  1  0
 14 16  2  0
M  END

$$$$
No_2-gen_results/4M15/2024-09-16-15-11-11/
     RDKit          3D

  7  7  0  0  0  0  0  0  0  0999 V2000
    4.6705    4.0089    3.6614 O   0  0  0  0  0  0  0  0  0  0  0  0
    5.6202    4.3973    2.8282 C   0  0  0  0  0  0  0  0  0  0  0  0
    5.1188    4.6750    1.4792 C   0  0  0  0  0  0  0  0  0  0  0  0
    6.1933    5.1931    0.5713 C   0  0  0  0  0  0  0  0  0  0  0  0
    7.3726    5.7119    1.2960 C   0  0  0  0  0  0  0  0  0  0  0  0
    6.7828    4.8979    3.3605 C   0  0  0  0  0  0  0  0  0  0  0  0
    7.7079    5.4769    2.5191 C   0  0  0  0  0  0  0  0  0  0  0  0
  1  2  1  0
  2  3  2  0
  3  4  1  0
  4  5  2  0
  5  7  1  0
  7  6  2  0
  6  2  1  0
M  END

$$$$
No_3-gen_results/4M15/2024-09-16-15-11-11/
     RDKit          3D

 16 16  0  0  0  0  0  0  0  0999 V2000
    4.6705    4.0089    3.6614 O   0  0  0  0  0  0  0  0  0  0  0  0
    5.7187    4.5805    3.0518 C   0  0  0  0  0  0  0  0  0  0  0  0
    6.9351    4.8665    3.5365 C   0  0  0  0  0  0  0  0  0  0  0  0
    7.8115    5.8275    2.9016 C   0  0  0  0  0  0  0  0  0  0  0  0
    7.5933    6.2541    1.6164 C   0  0  0  0  0  0  0  0  0  0  0  0
    5.2950    5.2310    1.7899 C   0  0  0  0  0  0  0  0  0  0  0  0
    6.3226    5.9038    1.0380 C   0  0  0  0  0  0  0  0  0  0  0  0
    9.0973    6.1948    3.5482 C   0  0  0  0  0  0  0  0  0  0  0  0
    4.1806    4.9283    1.2224 O   0  0  0  0  0  0  0  0  0  0  0  0
    9.2410    5.8924    4.7735 O   0  0  0  0  0  0  0  0  0  0  0  0
    9.8729    6.9263    2.9080 O   0  0  0  0  0  0  0  0  0  0  0  0
    5.3830    3.4558    4.6008 F   0  0  0  0  0  0  0  0  0  0  0  0
   10.0491    4.8843    5.2309 C   0  0  0  0  0  0  0  0  0  0  0  0
    9.5154    4.6007    6.4259 O   0  0  0  0  0  0  0  0  0  0  0  0
   10.9337    5.9527    5.8380 C   0  0  0  0  0  0  0  0  0  0  0  0
   10.9032    6.3108    7.0863 O   0  0  0  0  0  0  0  0  0  0  0  0
  1  2  1  0
  4  8  1  0
  6  9  1  0
  8 10  1  0
  8 11  2  0
  1 12  1  0
 10 13  1  0
 13 14  1  0
 13 15  1  0
 15 16  2  0
  2  3  2  0
  3  4  1  0
  4  5  2  0
  5  7  1  0
  7  6  2  0
  6  2  1  0
M  END

$$$$
