obj01
  PyMOL2.6          3D                             0

 25 28  0  0  0  0  0  0  0  0999 V2000
   12.9468  -20.7211   10.1690 C   0  0  0  0  0  0  0  0  0  0  0  0
   14.2518  -20.2877   10.2233 C   0  0  0  0  0  0  0  0  0  0  0  0
   11.9059  -19.8208   10.1258 C   0  0  0  0  0  0  0  0  0  0  0  0
   13.1311  -12.3574    9.0874 C   0  0  0  0  0  0  0  0  0  0  0  0
   11.2686  -13.4257   10.1269 C   0  0  0  0  0  0  0  0  0  0  0  0
   14.5258  -18.9386   10.2330 C   0  0  0  0  0  0  0  0  0  0  0  0
   12.1669  -18.4693   10.1381 C   0  0  0  0  0  0  0  0  0  0  0  0
   12.3425  -11.2553    8.8370 C   0  0  0  0  0  0  0  0  0  0  0  0
   10.4809  -12.3158    9.8760 C   0  0  0  0  0  0  0  0  0  0  0  0
   14.9092  -16.1122   10.5914 C   0  0  0  0  0  0  0  0  0  0  0  0
   12.5962  -13.4459    9.7346 C   0  0  0  0  0  0  0  0  0  0  0  0
   14.7096  -14.7541   10.4794 C   0  0  0  0  0  0  0  0  0  0  0  0
   13.4748  -18.0583   10.1847 C   0  0  0  0  0  0  0  0  0  0  0  0
   11.0226  -11.2310    9.2262 C   0  0  0  0  0  0  0  0  0  0  0  0
   13.3746  -14.6196   10.0114 C   0  0  0  0  0  0  0  0  0  0  0  0
   16.6688  -13.4770    9.6720 C   0  0  0  0  0  0  0  0  0  0  0  0
   17.9033  -14.1761   11.4263 C   0  0  0  0  0  0  0  0  0  0  0  0
   15.6880  -13.7013   10.7951 C   0  0  0  0  0  0  0  0  0  0  0  0
   12.7922  -15.8141    9.8454 N   0  0  0  0  0  0  0  0  0  0  0  0
   13.7383  -16.6910   10.1992 N   0  0  0  0  0  0  0  0  0  0  0  0
   17.9149  -13.7998   10.1141 N   0  0  0  0  0  0  0  0  0  0  0  0
   16.5920  -14.1778   11.8229 N   0  0  0  0  0  0  0  0  0  0  0  0
   16.3905  -13.0280    8.5733 O   0  0  0  0  0  0  0  0  0  0  0  0
   18.8858  -14.4656   12.0910 O   0  0  0  0  0  0  0  0  0  0  0  0
   10.2671  -10.1302    8.9755 F   0  0  0  0  0  0  0  0  0  0  0  0
  1  2  2  0  0  0  0
  1  3  1  0  0  0  0
  2  6  1  0  0  0  0
  3  7  2  0  0  0  0
  4  8  1  0  0  0  0
  5  9  2  0  0  0  0
  4 11  2  0  0  0  0
  5 11  1  0  0  0  0
 10 12  2  0  0  0  0
  6 13  2  0  0  0  0
  7 13  1  0  0  0  0
  8 14  2  0  0  0  0
  9 14  1  0  0  0  0
 11 15  1  0  0  0  0
 12 15  1  0  0  0  0
 12 18  1  0  0  0  0
 16 18  1  0  0  0  0
 15 19  2  0  0  0  0
 10 20  1  0  0  0  0
 13 20  1  0  0  0  0
 19 20  1  0  0  0  0
 16 21  1  0  0  0  0
 17 21  1  0  0  0  0
 17 22  1  0  0  0  0
 18 22  1  0  0  0  0
 16 23  2  0  0  0  0
 17 24  2  0  0  0  0
 14 25  1  0  0  0  0
M  END
$$$$
