No_0-complexes_sdf/6BKW-FPZ/2025-05-20-10-44-09/
     RDKit          3D

  6  6  0  0  0  0  0  0  0  0999 V2000
   -7.7129    4.2099   27.0854 C   0  0  0  0  0  0  0  0  0  0  0  0
   -7.7814    5.1722   27.8972 C   0  0  0  0  0  0  0  0  0  0  0  0
   -8.8998    3.8713   26.3707 C   0  0  0  0  0  0  0  0  0  0  0  0
   -9.9938    4.6774   26.5446 C   0  0  0  0  0  0  0  0  0  0  0  0
   -8.7789    6.1536   27.9256 C   0  0  0  0  0  0  0  0  0  0  0  0
   -9.9428    5.8398   27.2296 C   0  0  0  0  0  0  0  0  0  0  0  0
  1  2  2  0
  2  5  1  0
  5  6  2  0
  6  4  1  0
  4  3  2  0
  3  1  1  0
M  END

$$$$
No_1-complexes_sdf/6BKW-FPZ/2025-05-20-10-44-09/
     RDKit          3D

 35 40  0  0  0  0  0  0  0  0999 V2000
   -7.9040    3.9820   27.1177 C   0  0  0  0  0  0  0  0  0  0  0  0
   -9.0711    4.3164   27.0630 C   0  0  0  0  0  0  0  0  0  0  0  0
   -9.8698    3.9665   25.9495 C   0  0  0  0  0  0  0  0  0  0  0  0
   -7.0332    4.5030   28.2025 C   0  0  0  0  0  0  0  0  0  0  0  0
  -10.9909    4.7237   25.5958 C   0  0  0  0  0  0  0  0  0  0  0  0
   -7.4989    5.5573   28.9524 C   0  0  0  0  0  0  0  0  0  0  0  0
  -11.7350    4.2316   24.5284 C   0  0  0  0  0  0  0  0  0  0  0  0
  -11.2912    3.1970   23.7185 C   0  0  0  0  0  0  0  0  0  0  0  0
  -10.1586    2.5464   24.0389 C   0  0  0  0  0  0  0  0  0  0  0  0
   -9.3966    2.9844   25.1500 C   0  0  0  0  0  0  0  0  0  0  0  0
   -9.4387    5.4350   27.9141 C   0  0  0  0  0  0  0  0  0  0  0  0
   -8.6719    5.9864   28.8063 N   0  0  0  0  0  0  0  0  0  0  0  0
   -9.6684    1.3973   23.2190 C   0  0  0  0  0  0  0  0  0  0  0  0
   -9.7071    1.6276   21.9800 F   0  0  0  0  0  0  0  0  0  0  0  0
  -10.1822    0.2949   23.6928 F   0  0  0  0  0  0  0  0  0  0  0  0
   -8.4295    1.0167   23.5583 F   0  0  0  0  0  0  0  0  0  0  0  0
   -5.7395    4.0384   28.2641 O   0  0  0  0  0  0  0  0  0  0  0  0
   -5.4252    2.8572   27.7246 C   0  0  0  0  0  0  0  0  0  0  0  0
   -4.1430    2.3124   28.2535 C   0  0  0  0  0  0  0  0  0  0  0  0
   -3.8478    0.9013   27.7940 C   0  0  0  0  0  0  0  0  0  0  0  0
   -4.9377    0.1137   27.3864 C   0  0  0  0  0  0  0  0  0  0  0  0
   -4.6300   -1.1875   26.9894 C   0  0  0  0  0  0  0  0  0  0  0  0
   -5.6607   -1.9361   26.4372 C   0  0  0  0  0  0  0  0  0  0  0  0
   -6.9905   -1.3730   26.3496 C   0  0  0  0  0  0  0  0  0  0  0  0
   -7.2615   -0.0734   26.8241 C   0  0  0  0  0  0  0  0  0  0  0  0
   -6.1877    0.6848   27.3109 C   0  0  0  0  0  0  0  0  0  0  0  0
   -6.4161    2.0012   27.5159 N   0  0  0  0  0  0  0  0  0  0  0  0
   -7.5567    2.7071   27.0801 C   0  0  0  0  0  0  0  0  0  0  0  0
   -7.9846   -2.3866   26.3340 C   0  0  0  0  0  0  0  0  0  0  0  0
   -8.7195   -2.7404   27.3750 C   0  0  0  0  0  0  0  0  0  0  0  0
   -9.8630   -3.5167   27.3177 C   0  0  0  0  0  0  0  0  0  0  0  0
   -8.3985   -2.8266   25.0377 C   0  0  0  0  0  0  0  0  0  0  0  0
   -9.5573   -3.6365   24.8903 C   0  0  0  0  0  0  0  0  0  0  0  0
  -10.2465   -3.9797   26.0456 C   0  0  0  0  0  0  0  0  0  0  0  0
  -11.5040   -5.1011   25.9158 Cl  0  0  0  0  0  0  0  0  0  0  0  0
  9 13  1  0
 13 14  1  0
 13 15  1  0
 13 16  1  0
  4 17  1  0
 17 18  1  0
 18 19  1  0
 20 21  1  0
 18 27  1  0
 26 27  1  0
  1 28  1  0
 27 28  1  0
 24 29  1  0
 34 35  1  0
  3  2  1  0
 19 20  1  0
 29 30  2  0
 30 31  1  0
 31 34  2  0
 34 33  1  0
 33 32  2  0
 32 29  1  0
  1  2  1  0
  2 11  2  0
 11 12  1  0
 12  6  2  0
  6  4  1  0
  4  1  2  0
  3  5  2  0
  5  7  1  0
  7  8  2  0
  8  9  1  0
  9 10  2  0
 10  3  1  0
 21 22  2  0
 22 23  1  0
 23 24  2  0
 24 25  1  0
 25 26  2  0
 26 21  1  0
M  END

$$$$
No_2-complexes_sdf/6BKW-FPZ/2025-05-20-10-44-09/
     RDKit          3D

 21 23  0  0  0  0  0  0  0  0999 V2000
   -7.9040    3.9820   27.1177 C   0  0  0  0  0  0  0  0  0  0  0  0
   -8.2057    2.8231   26.8733 C   0  0  0  0  0  0  0  0  0  0  0  0
   -9.2962    2.4021   26.1155 C   0  0  0  0  0  0  0  0  0  0  0  0
   -8.7358    5.0662   26.5917 C   0  0  0  0  0  0  0  0  0  0  0  0
   -9.7618    4.7023   25.7546 C   0  0  0  0  0  0  0  0  0  0  0  0
  -10.0066    3.4105   25.4922 C   0  0  0  0  0  0  0  0  0  0  0  0
   -8.3936    6.4769   26.8843 C   0  0  0  0  0  0  0  0  0  0  0  0
   -8.0660    7.5190   27.0318 N   0  0  0  0  0  0  0  0  0  0  0  0
   -9.5373    0.9624   25.8652 C   0  0  0  0  0  0  0  0  0  0  0  0
   -8.6773    0.1949   25.4962 C   0  0  0  0  0  0  0  0  0  0  0  0
   -7.2750    0.6684   25.2039 C   0  0  0  0  0  0  0  0  0  0  0  0
   -8.8916   -1.2685   25.2875 C   0  0  0  0  0  0  0  0  0  0  0  0
   -9.9084   -1.7134   25.3889 C   0  0  0  0  0  0  0  0  0  0  0  0
  -11.0461   -0.8318   25.9070 C   0  0  0  0  0  0  0  0  0  0  0  0
  -10.8635    0.5057   26.1851 C   0  0  0  0  0  0  0  0  0  0  0  0
  -12.4015   -1.4731   26.2490 C   0  0  0  0  0  0  0  0  0  0  0  0
  -12.9983   -1.2225   27.3631 C   0  0  0  0  0  0  0  0  0  0  0  0
  -14.2393   -1.6184   27.6569 C   0  0  0  0  0  0  0  0  0  0  0  0
  -13.0232   -2.2271   25.2993 C   0  0  0  0  0  0  0  0  0  0  0  0
  -14.2881   -2.7020   25.5448 C   0  0  0  0  0  0  0  0  0  0  0  0
  -14.8865   -2.4075   26.7762 C   0  0  0  0  0  0  0  0  0  0  0  0
  4  7  1  0
  7  8  3  0
  3  9  1  0
 10 11  1  0
 14 16  1  0
  9 10  2  0
 10 12  1  0
 12 13  2  0
 13 14  1  0
 14 15  2  0
 15  9  1  0
  1  2  2  0
  2  3  1  0
  3  6  2  0
  6  5  1  0
  5  4  2  0
  4  1  1  0
 16 17  2  0
 17 18  1  0
 18 21  2  0
 21 20  1  0
 20 19  2  0
 19 16  1  0
M  END

$$$$
No_3-complexes_sdf/6BKW-FPZ/2025-05-20-10-44-09/
     RDKit          3D

 15 16  0  0  0  0  0  0  0  0999 V2000
   -7.9040    3.9820   27.1177 C   0  0  0  0  0  0  0  0  0  0  0  0
   -9.0711    4.3164   27.0630 C   0  0  0  0  0  0  0  0  0  0  0  0
   -9.5294    5.4517   27.7215 C   0  0  0  0  0  0  0  0  0  0  0  0
   -6.9328    4.7309   27.8881 C   0  0  0  0  0  0  0  0  0  0  0  0
   -7.3666    5.8455   28.5488 C   0  0  0  0  0  0  0  0  0  0  0  0
   -8.6669    6.2428   28.4199 C   0  0  0  0  0  0  0  0  0  0  0  0
  -10.0711    3.5844   26.2083 C   0  0  0  0  0  0  0  0  0  0  0  0
  -10.0307    3.8537   24.8119 C   0  0  0  0  0  0  0  0  0  0  0  0
  -10.6901    3.1521   23.8599 C   0  0  0  0  0  0  0  0  0  0  0  0
  -10.4887    3.4837   22.4836 C   0  0  0  0  0  0  0  0  0  0  0  0
  -10.8486    2.5856   26.6490 C   0  0  0  0  0  0  0  0  0  0  0  0
  -11.6422    1.8489   25.7276 C   0  0  0  0  0  0  0  0  0  0  0  0
  -11.4456    2.1484   24.4654 C   0  0  0  0  0  0  0  0  0  0  0  0
  -10.5087    4.7420   22.0533 N   0  0  0  0  0  0  0  0  0  0  0  0
  -10.0063    2.6795   21.6433 O   0  0  0  0  0  0  0  0  0  0  0  0
  2  7  1  0
  9 10  1  0
 10 14  1  0
 10 15  2  0
  1  2  2  0
  2  3  1  0
  3  6  2  0
  6  5  1  0
  5  4  2  0
  4  1  1  0
  7  8  2  0
  8  9  1  0
  9 13  2  0
 13 12  1  0
 12 11  2  0
 11  7  1  0
M  END

$$$$
No_4-complexes_sdf/6BKW-FPZ/2025-05-20-10-44-09/
     RDKit          3D

 14 14  0  0  0  0  0  0  0  0999 V2000
   -7.9040    3.9820   27.1177 C   0  0  0  0  0  0  0  0  0  0  0  0
   -9.0711    4.3164   27.0630 C   0  0  0  0  0  0  0  0  0  0  0  0
   -9.5182    5.5541   27.5777 C   0  0  0  0  0  0  0  0  0  0  0  0
   -6.9424    4.7983   27.8424 C   0  0  0  0  0  0  0  0  0  0  0  0
   -7.3526    5.9739   28.3909 C   0  0  0  0  0  0  0  0  0  0  0  0
   -8.6479    6.3742   28.2169 C   0  0  0  0  0  0  0  0  0  0  0  0
  -10.0793    3.4689   26.3368 C   0  0  0  0  0  0  0  0  0  0  0  0
  -10.8066    3.4471   25.6317 C   0  0  0  0  0  0  0  0  0  0  0  0
  -11.5639    2.3881   25.0153 C   0  0  0  0  0  0  0  0  0  0  0  0
  -11.1953    1.1588   25.4306 C   0  0  0  0  0  0  0  0  0  0  0  0
  -10.1944    0.9723   26.3271 C   0  0  0  0  0  0  0  0  0  0  0  0
   -9.5339    2.1353   26.8587 C   0  0  0  0  0  0  0  0  0  0  0  0
   -8.4924    1.8817   27.7068 N   0  0  0  0  0  0  0  0  0  0  0  0
   -9.3552    1.4180   27.6157 Cl  0  0  0  0  0  0  0  0  0  0  0  0
  2  7  1  0
  7  8  3  0
  8  9  1  0
  9 10  2  3
 10 11  1  0
 11 12  1  0
 12 13  1  0
 12 14  1  0
  1  2  2  0
  2  3  1  0
  3  6  2  0
  6  5  1  0
  5  4  2  0
  4  1  1  0
M  END

$$$$
No_5-complexes_sdf/6BKW-FPZ/2025-05-20-10-44-09/
     RDKit          3D

 17 17  0  0  0  0  0  0  0  0999 V2000
   -7.9040    3.9820   27.1177 C   0  0  0  0  0  0  0  0  0  0  0  0
   -9.0711    4.3164   27.0630 C   0  0  0  0  0  0  0  0  0  0  0  0
  -10.0395    3.8218   27.1938 C   0  0  0  0  0  0  0  0  0  0  0  0
   -7.6424    2.5858   27.3610 C   0  0  0  0  0  0  0  0  0  0  0  0
   -8.7646    1.7754   27.4263 C   0  0  0  0  0  0  0  0  0  0  0  0
  -11.4608    4.3331   27.1441 C   0  0  0  0  0  0  0  0  0  0  0  0
   -9.9810    2.3615   27.3942 C   0  0  0  0  0  0  0  0  0  0  0  0
   -6.4041    2.1054   27.3958 F   0  0  0  0  0  0  0  0  0  0  0  0
  -12.1107    4.7813   28.5091 C   0  0  0  0  0  0  0  0  0  0  0  0
  -13.0240    3.7303   28.8781 C   0  0  0  0  0  0  0  0  0  0  0  0
  -12.5164    2.6586   29.2453 C   0  0  0  0  0  0  0  0  0  0  0  0
  -13.3141    1.5952   29.8848 C   0  0  0  0  0  0  0  0  0  0  0  0
  -13.0453    0.3708   29.6207 C   0  0  0  0  0  0  0  0  0  0  0  0
  -13.8269   -0.6824   30.1181 C   0  0  0  0  0  0  0  0  0  0  0  0
  -13.5009   -2.0116   29.8122 C   0  0  0  0  0  0  0  0  0  0  0  0
  -12.3798   -2.2556   28.9998 C   0  0  0  0  0  0  0  0  0  0  0  0
  -12.0705   -3.6054   28.7320 C   0  0  0  0  0  0  0  0  0  0  0  0
  3  6  1  0
  4  8  1  0
  6  9  1  0
  9 10  1  0
 10 11  2  3
 11 12  1  0
 12 13  2  3
 13 14  1  0
 14 15  2  3
 15 16  1  0
 16 17  2  0
  1  2  2  0
  2  3  1  0
  3  7  2  0
  7  5  1  0
  5  4  2  0
  4  1  1  0
M  END

$$$$
