obj01
  PyMOL2.6          3D                             0

 23 25  0  0  0  0  0  0  0  0999 V2000
   18.9803   -3.6779   20.3755 N   0  0  0  0  0  0  0  0  0  0  0  0
   19.3611   -6.1604   20.8398 C   0  0  0  0  0  0  0  0  0  0  0  0
   18.8194   -1.0045   18.7860 O   0  0  0  0  0  0  0  0  0  0  0  0
   16.2582   -0.4702   12.1279 Cl  0  0  0  0  0  0  0  0  0  0  0  0
   18.8609   -1.9322   10.7808 Cl  0  0  0  0  0  0  0  0  0  0  0  0
   20.3842   -7.1371   21.1230 C   0  0  0  0  0  0  0  0  0  0  0  0
   21.1570   -3.0576   20.5189 N   0  0  0  0  0  0  0  0  0  0  0  0
   20.6246   -1.3424   17.5479 O   0  0  0  0  0  0  0  0  0  0  0  0
   21.7653   -6.7400   21.2152 C   0  0  0  0  0  0  0  0  0  0  0  0
   18.5116   -0.8381   16.6646 N   0  0  0  0  0  0  0  0  0  0  0  0
   22.1204   -5.3617   21.0196 C   0  0  0  0  0  0  0  0  0  0  0  0
   19.7458   -4.7932   20.6504 C   0  0  0  0  0  0  0  0  0  0  0  0
   21.0856   -4.4087   20.7399 C   0  0  0  0  0  0  0  0  0  0  0  0
   19.8820   -2.6589   20.3081 C   0  0  0  0  0  0  0  0  0  0  0  0
   19.5626   -1.2008   20.0306 C   0  0  0  0  0  0  0  0  0  0  0  0
   19.4330   -1.0932   17.5814 C   0  0  0  0  0  0  0  0  0  0  0  0
   18.6781   -1.1431   15.3122 C   0  0  0  0  0  0  0  0  0  0  0  0
   19.8222   -1.7805   14.7095 C   0  0  0  0  0  0  0  0  0  0  0  0
   19.8581   -2.0186   13.3089 C   0  0  0  0  0  0  0  0  0  0  0  0
   18.7610   -1.6247   12.4802 C   0  0  0  0  0  0  0  0  0  0  0  0
   17.6136   -0.9836   13.0784 C   0  0  0  0  0  0  0  0  0  0  0  0
   17.5847   -0.7532   14.4903 C   0  0  0  0  0  0  0  0  0  0  0  0
   18.5627   -0.5545   20.8922 C   0  0  0  0  0  0  0  0  0  0  0  0
  2  6  1  0  0  0  0
  6  9  2  0  0  0  0
  9 11  1  0  0  0  0
  1 12  1  0  0  0  0
  2 12  2  0  0  0  0
  7 13  1  0  0  0  0
 11 13  2  0  0  0  0
 12 13  1  0  0  0  0
  1 14  1  0  0  0  0
  7 14  2  0  0  0  0
  3 15  1  0  0  0  0
 14 15  1  0  0  0  0
  3 16  1  0  0  0  0
  8 16  2  0  0  0  0
 10 16  1  0  0  0  0
 10 17  1  0  0  0  0
 17 18  1  0  0  0  0
 18 19  2  0  0  0  0
  5 20  1  0  0  0  0
 19 20  1  0  0  0  0
  4 21  1  0  0  0  0
 20 21  2  0  0  0  0
 17 22  2  0  0  0  0
 21 22  1  0  0  0  0
 15 23  1  0  0  0  0
M  END
$$$$
